*SPEF "ieee 1481-1999"
*DESIGN "top"
*DATE "21:39:05 Sunday March 02, 2025"
*VENDOR "The OpenROAD Project"
*PROGRAM "OpenROAD"
*VERSION "13116aa29cb37d21fc378bb4ce10389ebe285f98"
*DESIGN_FLOW "NAME_SCOPE LOCAL" "PIN_CAP NONE"
*DIVIDER /
*DELIMITER :
*BUS_DELIMITER []
*T_UNIT 1 NS
*C_UNIT 1 PF
*R_UNIT 1 OHM
*L_UNIT 1 HENRY

*NAME_MAP
*1 _000_
*2 _001_
*3 _002_
*4 _003_
*5 _004_
*6 _005_
*7 _006_
*8 _007_
*9 _008_
*10 _009_
*11 _010_
*12 _011_
*13 _012_
*14 _013_
*15 _014_
*16 _015_
*17 _016_
*18 _017_
*19 _018_
*20 _019_
*21 _020_
*22 _021_
*23 _022_
*24 _023_
*25 _024_
*26 _025_
*27 _026_
*28 _027_
*29 _028_
*30 _029_
*31 _030_
*32 _031_
*33 _032_
*34 _033_
*35 _034_
*36 _035_
*37 _036_
*38 _037_
*39 _038_
*40 _039_
*41 _040_
*42 _041_
*43 _042_
*44 _043_
*45 _044_
*46 _045_
*47 _046_
*48 _047_
*49 _048_
*50 _049_
*51 _050_
*52 _051_
*53 _052_
*54 _053_
*55 _054_
*56 _055_
*57 _056_
*58 _057_
*59 _058_
*60 _059_
*61 _060_
*62 _061_
*63 _062_
*64 _063_
*65 _064_
*66 _065_
*67 _066_
*68 _067_
*69 _068_
*70 _069_
*71 _070_
*72 _071_
*73 _072_
*74 _073_
*75 _074_
*76 _075_
*77 _076_
*78 _077_
*79 _078_
*80 _079_
*81 _080_
*82 _081_
*83 _082_
*84 _083_
*85 _084_
*86 _085_
*87 _086_
*88 _087_
*89 _088_
*90 _089_
*91 _090_
*92 _091_
*93 _092_
*94 _093_
*95 _094_
*96 _095_
*97 _096_
*98 _097_
*99 _098_
*100 _099_
*101 _100_
*102 _101_
*103 _102_
*104 _103_
*105 _104_
*106 _105_
*107 _106_
*108 _107_
*109 _108_
*110 _109_
*111 blocco3\.m1\.soglia\[0\]
*112 blocco3\.m1\.soglia\[10\]
*113 blocco3\.m1\.soglia\[11\]
*114 blocco3\.m1\.soglia\[1\]
*115 blocco3\.m1\.soglia\[2\]
*116 blocco3\.m1\.soglia\[3\]
*117 blocco3\.m1\.soglia\[4\]
*118 blocco3\.m1\.soglia\[5\]
*119 blocco3\.m1\.soglia\[6\]
*120 blocco3\.m1\.soglia\[7\]
*121 blocco3\.m1\.soglia\[8\]
*122 blocco3\.m1\.soglia\[9\]
*123 blocco3\.m2\.q\[0\]
*124 blocco3\.m2\.q\[10\]
*125 blocco3\.m2\.q\[11\]
*126 blocco3\.m2\.q\[1\]
*127 blocco3\.m2\.q\[2\]
*128 blocco3\.m2\.q\[3\]
*129 blocco3\.m2\.q\[4\]
*130 blocco3\.m2\.q\[5\]
*131 blocco3\.m2\.q\[6\]
*132 blocco3\.m2\.q\[7\]
*133 blocco3\.m2\.q\[8\]
*134 blocco3\.m2\.q\[9\]
*135 blocco3\.m2\.stato_corrente\[0\]
*136 blocco3\.m2\.stato_corrente\[1\]
*137 blocco3\.m2\.stato_corrente\[2\]
*138 clk
*139 din
*140 enable
*141 output_iir\[0\]
*142 output_iir\[10\]
*143 output_iir\[1\]
*144 output_iir\[2\]
*145 output_iir\[3\]
*146 output_iir\[4\]
*147 output_iir\[5\]
*148 output_iir\[6\]
*149 output_iir\[7\]
*150 output_iir\[8\]
*151 output_iir\[9\]
*152 rst
*153 spike
*154 x[0]
*155 x[10]
*156 x[1]
*157 x[2]
*158 x[3]
*159 x[4]
*160 x[5]
*161 x[6]
*162 x[7]
*163 x[8]
*164 x[9]
*167 net1
*168 net2
*169 net3
*170 net4
*171 net5
*172 net6
*173 net7
*174 net8
*175 net9
*176 net10
*177 net11
*178 net12
*179 net13
*180 net14
*181 net15
*182 net16
*183 net17
*184 net18
*185 net19
*186 net20
*187 net21
*188 net22
*189 net23
*190 net24
*191 net25
*192 net26
*193 net27
*194 net28
*195 net29
*196 net30
*197 net31
*198 net32
*199 net33
*200 net34
*201 net35
*202 net36
*203 net37
*204 net38
*205 net39
*206 net40
*207 net41
*208 net42
*209 net43
*210 net44
*211 net45
*212 net46
*213 net47
*214 net48
*215 net49
*216 net50
*217 net51
*218 net52
*219 net53
*220 net54
*221 net55
*222 net56
*223 net57
*224 clk_regs
*225 clknet_0_clk
*226 clknet_1_0__leaf_clk
*227 clknet_1_1__leaf_clk
*228 clknet_0_clk_regs
*229 clknet_1_0__leaf_clk_regs
*230 clknet_1_1__leaf_clk_regs
*231 delaynet_0_my_clock
*232 delaynet_1_my_clock
*233 delaynet_2_my_clock
*234 net58
*235 net59
*236 net60
*237 net61
*238 net62
*239 _110_
*240 _111_
*241 _112_
*242 _113_
*243 _114_
*244 _115_
*245 _116_
*246 _117_
*247 _118_
*248 _119_
*249 _120_
*250 _121_
*251 _122_
*252 _123_
*253 _124_
*254 _125_
*255 _126_
*256 _127_
*257 _128_
*258 _129_
*259 _130_
*260 _131_
*261 _132_
*262 _133_
*263 _134_
*264 _135_
*265 _136_
*266 _137_
*267 _138_
*268 _139_
*269 _140_
*270 _141_
*271 _142_
*272 _143_
*273 _144_
*274 _145_
*275 _146_
*276 _147_
*277 _148_
*278 _149_
*279 _150_
*280 _151_
*281 _152_
*282 _153_
*283 _154_
*284 _155_
*285 _156_
*286 _157_
*287 _158_
*288 _159_
*289 _160_
*290 _161_
*291 _162_
*292 _163_
*293 _164_
*294 _165_
*295 _166_
*296 _167_
*297 _168_
*298 _169_
*299 _170_
*300 _171_
*301 _172_
*302 _173_
*303 _174_
*304 _175_
*305 _176_
*306 _177_
*307 _178_
*308 _179_
*309 _180_
*310 _181_
*311 _182_
*312 _183_
*313 _184_
*314 _185_
*315 _186_
*316 _187_
*317 _188_
*318 _189_
*319 _190_
*320 _191_
*321 _192_
*322 _193_
*323 _194_
*324 _195_
*325 _196_
*326 _197_
*327 _198_
*328 _199_
*329 _200_
*330 _201_
*331 _202_
*332 _203_
*333 _204_
*334 _205_
*335 blocco1
*336 blocco2
*337 blocco3\.m1\.soglia\[0\]\$_SDFFE_PP0P_
*338 blocco3\.m1\.soglia\[10\]\$_SDFFE_PP0P_
*339 blocco3\.m1\.soglia\[11\]\$_SDFFE_PP0P_
*340 blocco3\.m1\.soglia\[1\]\$_SDFFE_PP0P_
*341 blocco3\.m1\.soglia\[2\]\$_SDFFE_PP0P_
*342 blocco3\.m1\.soglia\[3\]\$_SDFFE_PP0P_
*343 blocco3\.m1\.soglia\[4\]\$_SDFFE_PP0P_
*344 blocco3\.m1\.soglia\[5\]\$_SDFFE_PP0P_
*345 blocco3\.m1\.soglia\[6\]\$_SDFFE_PP0P_
*346 blocco3\.m1\.soglia\[7\]\$_SDFFE_PP0P_
*347 blocco3\.m1\.soglia\[8\]\$_SDFFE_PP0P_
*348 blocco3\.m1\.soglia\[9\]\$_SDFFE_PP0P_
*349 blocco3\.m2\.stato_corrente\[0\]\$_SDFF_PP0_
*350 blocco3\.m2\.stato_corrente\[1\]\$_SDFF_PP0_
*351 blocco3\.m2\.stato_corrente\[2\]\$_SDFF_PP0_
*352 PHY_EDGE_ROW_0_Right_0
*353 PHY_EDGE_ROW_1_Right_1
*354 PHY_EDGE_ROW_2_Right_2
*355 PHY_EDGE_ROW_3_Right_3
*356 PHY_EDGE_ROW_69_Right_4
*357 PHY_EDGE_ROW_70_Right_5
*358 PHY_EDGE_ROW_71_Right_6
*359 PHY_EDGE_ROW_72_Right_7
*360 PHY_EDGE_ROW_4_2_Right_8
*361 PHY_EDGE_ROW_5_2_Right_9
*362 PHY_EDGE_ROW_6_2_Right_10
*363 PHY_EDGE_ROW_7_2_Right_11
*364 PHY_EDGE_ROW_8_3_Right_12
*365 PHY_EDGE_ROW_9_3_Right_13
*366 PHY_EDGE_ROW_10_3_Right_14
*367 PHY_EDGE_ROW_11_3_Right_15
*368 PHY_EDGE_ROW_12_3_Right_16
*369 PHY_EDGE_ROW_13_3_Right_17
*370 PHY_EDGE_ROW_14_3_Right_18
*371 PHY_EDGE_ROW_15_3_Right_19
*372 PHY_EDGE_ROW_16_3_Right_20
*373 PHY_EDGE_ROW_17_3_Right_21
*374 PHY_EDGE_ROW_18_3_Right_22
*375 PHY_EDGE_ROW_19_3_Right_23
*376 PHY_EDGE_ROW_20_3_Right_24
*377 PHY_EDGE_ROW_21_3_Right_25
*378 PHY_EDGE_ROW_22_3_Right_26
*379 PHY_EDGE_ROW_23_3_Right_27
*380 PHY_EDGE_ROW_24_3_Right_28
*381 PHY_EDGE_ROW_25_3_Right_29
*382 PHY_EDGE_ROW_26_3_Right_30
*383 PHY_EDGE_ROW_27_3_Right_31
*384 PHY_EDGE_ROW_28_3_Right_32
*385 PHY_EDGE_ROW_29_3_Right_33
*386 PHY_EDGE_ROW_30_3_Right_34
*387 PHY_EDGE_ROW_31_3_Right_35
*388 PHY_EDGE_ROW_32_3_Right_36
*389 PHY_EDGE_ROW_33_3_Right_37
*390 PHY_EDGE_ROW_34_3_Right_38
*391 PHY_EDGE_ROW_35_3_Right_39
*392 PHY_EDGE_ROW_36_3_Right_40
*393 PHY_EDGE_ROW_37_3_Right_41
*394 PHY_EDGE_ROW_38_3_Right_42
*395 PHY_EDGE_ROW_39_3_Right_43
*396 PHY_EDGE_ROW_40_3_Right_44
*397 PHY_EDGE_ROW_41_3_Right_45
*398 PHY_EDGE_ROW_42_3_Right_46
*399 PHY_EDGE_ROW_43_3_Right_47
*400 PHY_EDGE_ROW_44_3_Right_48
*401 PHY_EDGE_ROW_45_3_Right_49
*402 PHY_EDGE_ROW_46_3_Right_50
*403 PHY_EDGE_ROW_47_3_Right_51
*404 PHY_EDGE_ROW_48_3_Right_52
*405 PHY_EDGE_ROW_49_3_Right_53
*406 PHY_EDGE_ROW_50_3_Right_54
*407 PHY_EDGE_ROW_51_3_Right_55
*408 PHY_EDGE_ROW_52_3_Right_56
*409 PHY_EDGE_ROW_53_3_Right_57
*410 PHY_EDGE_ROW_54_3_Right_58
*411 PHY_EDGE_ROW_55_3_Right_59
*412 PHY_EDGE_ROW_56_3_Right_60
*413 PHY_EDGE_ROW_57_3_Right_61
*414 PHY_EDGE_ROW_58_3_Right_62
*415 PHY_EDGE_ROW_59_3_Right_63
*416 PHY_EDGE_ROW_60_3_Right_64
*417 PHY_EDGE_ROW_61_3_Right_65
*418 PHY_EDGE_ROW_62_3_Right_66
*419 PHY_EDGE_ROW_63_3_Right_67
*420 PHY_EDGE_ROW_64_3_Right_68
*421 PHY_EDGE_ROW_65_2_Right_69
*422 PHY_EDGE_ROW_66_2_Right_70
*423 PHY_EDGE_ROW_67_2_Right_71
*424 PHY_EDGE_ROW_68_2_Right_72
*425 PHY_EDGE_ROW_0_Left_73
*426 PHY_EDGE_ROW_1_Left_74
*427 PHY_EDGE_ROW_2_Left_75
*428 PHY_EDGE_ROW_3_Left_76
*429 PHY_EDGE_ROW_5_1_Left_77
*430 PHY_EDGE_ROW_6_1_Left_78
*431 PHY_EDGE_ROW_7_1_Left_79
*432 PHY_EDGE_ROW_8_1_Left_80
*433 PHY_EDGE_ROW_9_1_Left_81
*434 PHY_EDGE_ROW_10_1_Left_82
*435 PHY_EDGE_ROW_11_1_Left_83
*436 PHY_EDGE_ROW_12_1_Left_84
*437 PHY_EDGE_ROW_13_1_Left_85
*438 PHY_EDGE_ROW_14_1_Left_86
*439 PHY_EDGE_ROW_15_1_Left_87
*440 PHY_EDGE_ROW_16_1_Left_88
*441 PHY_EDGE_ROW_17_1_Left_89
*442 PHY_EDGE_ROW_18_1_Left_90
*443 PHY_EDGE_ROW_19_1_Left_91
*444 PHY_EDGE_ROW_20_1_Left_92
*445 PHY_EDGE_ROW_21_1_Left_93
*446 PHY_EDGE_ROW_22_1_Left_94
*447 PHY_EDGE_ROW_23_1_Left_95
*448 PHY_EDGE_ROW_24_1_Left_96
*449 PHY_EDGE_ROW_25_1_Left_97
*450 PHY_EDGE_ROW_26_1_Left_98
*451 PHY_EDGE_ROW_27_1_Left_99
*452 PHY_EDGE_ROW_28_1_Left_100
*453 PHY_EDGE_ROW_29_1_Left_101
*454 PHY_EDGE_ROW_30_1_Left_102
*455 PHY_EDGE_ROW_31_1_Left_103
*456 PHY_EDGE_ROW_32_1_Left_104
*457 PHY_EDGE_ROW_33_1_Left_105
*458 PHY_EDGE_ROW_34_1_Left_106
*459 PHY_EDGE_ROW_35_1_Left_107
*460 PHY_EDGE_ROW_36_1_Left_108
*461 PHY_EDGE_ROW_37_1_Left_109
*462 PHY_EDGE_ROW_38_1_Left_110
*463 PHY_EDGE_ROW_39_1_Left_111
*464 PHY_EDGE_ROW_40_1_Left_112
*465 PHY_EDGE_ROW_41_1_Left_113
*466 PHY_EDGE_ROW_42_1_Left_114
*467 PHY_EDGE_ROW_43_1_Left_115
*468 PHY_EDGE_ROW_44_1_Left_116
*469 PHY_EDGE_ROW_45_1_Left_117
*470 PHY_EDGE_ROW_46_1_Left_118
*471 PHY_EDGE_ROW_47_1_Left_119
*472 PHY_EDGE_ROW_48_1_Left_120
*473 PHY_EDGE_ROW_49_1_Left_121
*474 PHY_EDGE_ROW_50_1_Left_122
*475 PHY_EDGE_ROW_51_1_Left_123
*476 PHY_EDGE_ROW_52_1_Left_124
*477 PHY_EDGE_ROW_53_1_Left_125
*478 PHY_EDGE_ROW_54_1_Left_126
*479 PHY_EDGE_ROW_55_1_Left_127
*480 PHY_EDGE_ROW_56_1_Left_128
*481 PHY_EDGE_ROW_57_1_Left_129
*482 PHY_EDGE_ROW_58_1_Left_130
*483 PHY_EDGE_ROW_59_1_Left_131
*484 PHY_EDGE_ROW_60_1_Left_132
*485 PHY_EDGE_ROW_61_1_Left_133
*486 PHY_EDGE_ROW_62_1_Left_134
*487 PHY_EDGE_ROW_63_1_Left_135
*488 PHY_EDGE_ROW_64_1_Left_136
*489 PHY_EDGE_ROW_65_1_Left_137
*490 PHY_EDGE_ROW_66_1_Left_138
*491 PHY_EDGE_ROW_67_1_Left_139
*492 PHY_EDGE_ROW_68_1_Left_140
*493 PHY_EDGE_ROW_69_Left_141
*494 PHY_EDGE_ROW_70_Left_142
*495 PHY_EDGE_ROW_71_Left_143
*496 PHY_EDGE_ROW_72_Left_144
*497 PHY_EDGE_ROW_4_1_Left_145
*498 PHY_EDGE_ROW_8_2_Left_146
*499 PHY_EDGE_ROW_9_2_Left_147
*500 PHY_EDGE_ROW_10_2_Left_148
*501 PHY_EDGE_ROW_11_2_Left_149
*502 PHY_EDGE_ROW_12_2_Left_150
*503 PHY_EDGE_ROW_13_2_Left_151
*504 PHY_EDGE_ROW_14_2_Left_152
*505 PHY_EDGE_ROW_15_2_Left_153
*506 PHY_EDGE_ROW_16_2_Left_154
*507 PHY_EDGE_ROW_17_2_Left_155
*508 PHY_EDGE_ROW_18_2_Left_156
*509 PHY_EDGE_ROW_19_2_Left_157
*510 PHY_EDGE_ROW_20_2_Left_158
*511 PHY_EDGE_ROW_21_2_Left_159
*512 PHY_EDGE_ROW_22_2_Left_160
*513 PHY_EDGE_ROW_23_2_Left_161
*514 PHY_EDGE_ROW_24_2_Left_162
*515 PHY_EDGE_ROW_25_2_Left_163
*516 PHY_EDGE_ROW_26_2_Left_164
*517 PHY_EDGE_ROW_27_2_Left_165
*518 PHY_EDGE_ROW_28_2_Left_166
*519 PHY_EDGE_ROW_29_2_Left_167
*520 PHY_EDGE_ROW_30_2_Left_168
*521 PHY_EDGE_ROW_31_2_Left_169
*522 PHY_EDGE_ROW_32_2_Left_170
*523 PHY_EDGE_ROW_33_2_Left_171
*524 PHY_EDGE_ROW_34_2_Left_172
*525 PHY_EDGE_ROW_35_2_Left_173
*526 PHY_EDGE_ROW_36_2_Left_174
*527 PHY_EDGE_ROW_37_2_Left_175
*528 PHY_EDGE_ROW_38_2_Left_176
*529 PHY_EDGE_ROW_39_2_Left_177
*530 PHY_EDGE_ROW_40_2_Left_178
*531 PHY_EDGE_ROW_41_2_Left_179
*532 PHY_EDGE_ROW_42_2_Left_180
*533 PHY_EDGE_ROW_43_2_Left_181
*534 PHY_EDGE_ROW_44_2_Left_182
*535 PHY_EDGE_ROW_45_2_Left_183
*536 PHY_EDGE_ROW_46_2_Left_184
*537 PHY_EDGE_ROW_47_2_Left_185
*538 PHY_EDGE_ROW_48_2_Left_186
*539 PHY_EDGE_ROW_49_2_Left_187
*540 PHY_EDGE_ROW_50_2_Left_188
*541 PHY_EDGE_ROW_51_2_Left_189
*542 PHY_EDGE_ROW_52_2_Left_190
*543 PHY_EDGE_ROW_53_2_Left_191
*544 PHY_EDGE_ROW_54_2_Left_192
*545 PHY_EDGE_ROW_55_2_Left_193
*546 PHY_EDGE_ROW_56_2_Left_194
*547 PHY_EDGE_ROW_57_2_Left_195
*548 PHY_EDGE_ROW_58_2_Left_196
*549 PHY_EDGE_ROW_59_2_Left_197
*550 PHY_EDGE_ROW_60_2_Left_198
*551 PHY_EDGE_ROW_61_2_Left_199
*552 PHY_EDGE_ROW_62_2_Left_200
*553 PHY_EDGE_ROW_63_2_Left_201
*554 PHY_EDGE_ROW_64_2_Left_202
*555 PHY_EDGE_ROW_8_1_Right_203
*556 PHY_EDGE_ROW_9_1_Right_204
*557 PHY_EDGE_ROW_10_1_Right_205
*558 PHY_EDGE_ROW_11_1_Right_206
*559 PHY_EDGE_ROW_12_1_Right_207
*560 PHY_EDGE_ROW_13_1_Right_208
*561 PHY_EDGE_ROW_14_1_Right_209
*562 PHY_EDGE_ROW_15_1_Right_210
*563 PHY_EDGE_ROW_16_1_Right_211
*564 PHY_EDGE_ROW_17_1_Right_212
*565 PHY_EDGE_ROW_18_1_Right_213
*566 PHY_EDGE_ROW_19_1_Right_214
*567 PHY_EDGE_ROW_20_1_Right_215
*568 PHY_EDGE_ROW_21_1_Right_216
*569 PHY_EDGE_ROW_22_1_Right_217
*570 PHY_EDGE_ROW_23_1_Right_218
*571 PHY_EDGE_ROW_24_1_Right_219
*572 PHY_EDGE_ROW_25_1_Right_220
*573 PHY_EDGE_ROW_26_1_Right_221
*574 PHY_EDGE_ROW_27_1_Right_222
*575 PHY_EDGE_ROW_28_1_Right_223
*576 PHY_EDGE_ROW_29_1_Right_224
*577 PHY_EDGE_ROW_30_1_Right_225
*578 PHY_EDGE_ROW_31_1_Right_226
*579 PHY_EDGE_ROW_32_1_Right_227
*580 PHY_EDGE_ROW_33_1_Right_228
*581 PHY_EDGE_ROW_34_1_Right_229
*582 PHY_EDGE_ROW_35_1_Right_230
*583 PHY_EDGE_ROW_36_1_Right_231
*584 PHY_EDGE_ROW_37_1_Right_232
*585 PHY_EDGE_ROW_38_1_Right_233
*586 PHY_EDGE_ROW_39_1_Right_234
*587 PHY_EDGE_ROW_40_1_Right_235
*588 PHY_EDGE_ROW_41_1_Right_236
*589 PHY_EDGE_ROW_42_1_Right_237
*590 PHY_EDGE_ROW_43_1_Right_238
*591 PHY_EDGE_ROW_44_1_Right_239
*592 PHY_EDGE_ROW_45_1_Right_240
*593 PHY_EDGE_ROW_46_1_Right_241
*594 PHY_EDGE_ROW_47_1_Right_242
*595 PHY_EDGE_ROW_48_1_Right_243
*596 PHY_EDGE_ROW_49_1_Right_244
*597 PHY_EDGE_ROW_50_1_Right_245
*598 PHY_EDGE_ROW_51_1_Right_246
*599 PHY_EDGE_ROW_52_1_Right_247
*600 PHY_EDGE_ROW_53_1_Right_248
*601 PHY_EDGE_ROW_54_1_Right_249
*602 PHY_EDGE_ROW_55_1_Right_250
*603 PHY_EDGE_ROW_56_1_Right_251
*604 PHY_EDGE_ROW_57_1_Right_252
*605 PHY_EDGE_ROW_58_1_Right_253
*606 PHY_EDGE_ROW_59_1_Right_254
*607 PHY_EDGE_ROW_60_1_Right_255
*608 PHY_EDGE_ROW_61_1_Right_256
*609 PHY_EDGE_ROW_62_1_Right_257
*610 PHY_EDGE_ROW_63_1_Right_258
*611 PHY_EDGE_ROW_64_1_Right_259
*612 PHY_EDGE_ROW_4_2_Left_260
*613 PHY_EDGE_ROW_5_2_Left_261
*614 PHY_EDGE_ROW_6_2_Left_262
*615 PHY_EDGE_ROW_7_2_Left_263
*616 PHY_EDGE_ROW_8_3_Left_264
*617 PHY_EDGE_ROW_9_3_Left_265
*618 PHY_EDGE_ROW_10_3_Left_266
*619 PHY_EDGE_ROW_11_3_Left_267
*620 PHY_EDGE_ROW_12_3_Left_268
*621 PHY_EDGE_ROW_13_3_Left_269
*622 PHY_EDGE_ROW_14_3_Left_270
*623 PHY_EDGE_ROW_15_3_Left_271
*624 PHY_EDGE_ROW_16_3_Left_272
*625 PHY_EDGE_ROW_17_3_Left_273
*626 PHY_EDGE_ROW_18_3_Left_274
*627 PHY_EDGE_ROW_19_3_Left_275
*628 PHY_EDGE_ROW_20_3_Left_276
*629 PHY_EDGE_ROW_21_3_Left_277
*630 PHY_EDGE_ROW_22_3_Left_278
*631 PHY_EDGE_ROW_23_3_Left_279
*632 PHY_EDGE_ROW_24_3_Left_280
*633 PHY_EDGE_ROW_25_3_Left_281
*634 PHY_EDGE_ROW_26_3_Left_282
*635 PHY_EDGE_ROW_27_3_Left_283
*636 PHY_EDGE_ROW_28_3_Left_284
*637 PHY_EDGE_ROW_29_3_Left_285
*638 PHY_EDGE_ROW_30_3_Left_286
*639 PHY_EDGE_ROW_31_3_Left_287
*640 PHY_EDGE_ROW_32_3_Left_288
*641 PHY_EDGE_ROW_33_3_Left_289
*642 PHY_EDGE_ROW_34_3_Left_290
*643 PHY_EDGE_ROW_35_3_Left_291
*644 PHY_EDGE_ROW_36_3_Left_292
*645 PHY_EDGE_ROW_37_3_Left_293
*646 PHY_EDGE_ROW_38_3_Left_294
*647 PHY_EDGE_ROW_39_3_Left_295
*648 PHY_EDGE_ROW_40_3_Left_296
*649 PHY_EDGE_ROW_41_3_Left_297
*650 PHY_EDGE_ROW_42_3_Left_298
*651 PHY_EDGE_ROW_43_3_Left_299
*652 PHY_EDGE_ROW_44_3_Left_300
*653 PHY_EDGE_ROW_45_3_Left_301
*654 PHY_EDGE_ROW_46_3_Left_302
*655 PHY_EDGE_ROW_47_3_Left_303
*656 PHY_EDGE_ROW_48_3_Left_304
*657 PHY_EDGE_ROW_49_3_Left_305
*658 PHY_EDGE_ROW_50_3_Left_306
*659 PHY_EDGE_ROW_51_3_Left_307
*660 PHY_EDGE_ROW_52_3_Left_308
*661 PHY_EDGE_ROW_53_3_Left_309
*662 PHY_EDGE_ROW_54_3_Left_310
*663 PHY_EDGE_ROW_55_3_Left_311
*664 PHY_EDGE_ROW_56_3_Left_312
*665 PHY_EDGE_ROW_57_3_Left_313
*666 PHY_EDGE_ROW_58_3_Left_314
*667 PHY_EDGE_ROW_59_3_Left_315
*668 PHY_EDGE_ROW_60_3_Left_316
*669 PHY_EDGE_ROW_61_3_Left_317
*670 PHY_EDGE_ROW_62_3_Left_318
*671 PHY_EDGE_ROW_63_3_Left_319
*672 PHY_EDGE_ROW_64_3_Left_320
*673 PHY_EDGE_ROW_65_2_Left_321
*674 PHY_EDGE_ROW_66_2_Left_322
*675 PHY_EDGE_ROW_67_2_Left_323
*676 PHY_EDGE_ROW_68_2_Left_324
*677 PHY_EDGE_ROW_5_1_Right_325
*678 PHY_EDGE_ROW_6_1_Right_326
*679 PHY_EDGE_ROW_7_1_Right_327
*680 PHY_EDGE_ROW_65_1_Right_328
*681 PHY_EDGE_ROW_66_1_Right_329
*682 PHY_EDGE_ROW_67_1_Right_330
*683 PHY_EDGE_ROW_68_1_Right_331
*684 PHY_EDGE_ROW_4_1_Right_332
*685 PHY_EDGE_ROW_8_2_Right_333
*686 PHY_EDGE_ROW_9_2_Right_334
*687 PHY_EDGE_ROW_10_2_Right_335
*688 PHY_EDGE_ROW_11_2_Right_336
*689 PHY_EDGE_ROW_12_2_Right_337
*690 PHY_EDGE_ROW_13_2_Right_338
*691 PHY_EDGE_ROW_14_2_Right_339
*692 PHY_EDGE_ROW_15_2_Right_340
*693 PHY_EDGE_ROW_16_2_Right_341
*694 PHY_EDGE_ROW_17_2_Right_342
*695 PHY_EDGE_ROW_18_2_Right_343
*696 PHY_EDGE_ROW_19_2_Right_344
*697 PHY_EDGE_ROW_20_2_Right_345
*698 PHY_EDGE_ROW_21_2_Right_346
*699 PHY_EDGE_ROW_22_2_Right_347
*700 PHY_EDGE_ROW_23_2_Right_348
*701 PHY_EDGE_ROW_24_2_Right_349
*702 PHY_EDGE_ROW_25_2_Right_350
*703 PHY_EDGE_ROW_26_2_Right_351
*704 PHY_EDGE_ROW_27_2_Right_352
*705 PHY_EDGE_ROW_28_2_Right_353
*706 PHY_EDGE_ROW_29_2_Right_354
*707 PHY_EDGE_ROW_30_2_Right_355
*708 PHY_EDGE_ROW_31_2_Right_356
*709 PHY_EDGE_ROW_32_2_Right_357
*710 PHY_EDGE_ROW_33_2_Right_358
*711 PHY_EDGE_ROW_34_2_Right_359
*712 PHY_EDGE_ROW_35_2_Right_360
*713 PHY_EDGE_ROW_36_2_Right_361
*714 PHY_EDGE_ROW_37_2_Right_362
*715 PHY_EDGE_ROW_38_2_Right_363
*716 PHY_EDGE_ROW_39_2_Right_364
*717 PHY_EDGE_ROW_40_2_Right_365
*718 PHY_EDGE_ROW_41_2_Right_366
*719 PHY_EDGE_ROW_42_2_Right_367
*720 PHY_EDGE_ROW_43_2_Right_368
*721 PHY_EDGE_ROW_44_2_Right_369
*722 PHY_EDGE_ROW_45_2_Right_370
*723 PHY_EDGE_ROW_46_2_Right_371
*724 PHY_EDGE_ROW_47_2_Right_372
*725 PHY_EDGE_ROW_48_2_Right_373
*726 PHY_EDGE_ROW_49_2_Right_374
*727 PHY_EDGE_ROW_50_2_Right_375
*728 PHY_EDGE_ROW_51_2_Right_376
*729 PHY_EDGE_ROW_52_2_Right_377
*730 PHY_EDGE_ROW_53_2_Right_378
*731 PHY_EDGE_ROW_54_2_Right_379
*732 PHY_EDGE_ROW_55_2_Right_380
*733 PHY_EDGE_ROW_56_2_Right_381
*734 PHY_EDGE_ROW_57_2_Right_382
*735 PHY_EDGE_ROW_58_2_Right_383
*736 PHY_EDGE_ROW_59_2_Right_384
*737 PHY_EDGE_ROW_60_2_Right_385
*738 PHY_EDGE_ROW_61_2_Right_386
*739 PHY_EDGE_ROW_62_2_Right_387
*740 PHY_EDGE_ROW_63_2_Right_388
*741 PHY_EDGE_ROW_64_2_Right_389
*742 TAP_TAPCELL_ROW_0_390
*743 TAP_TAPCELL_ROW_0_391
*744 TAP_TAPCELL_ROW_0_392
*745 TAP_TAPCELL_ROW_0_393
*746 TAP_TAPCELL_ROW_0_394
*747 TAP_TAPCELL_ROW_0_395
*748 TAP_TAPCELL_ROW_0_396
*749 TAP_TAPCELL_ROW_0_397
*750 TAP_TAPCELL_ROW_0_398
*751 TAP_TAPCELL_ROW_0_399
*752 TAP_TAPCELL_ROW_0_400
*753 TAP_TAPCELL_ROW_1_401
*754 TAP_TAPCELL_ROW_1_402
*755 TAP_TAPCELL_ROW_1_403
*756 TAP_TAPCELL_ROW_1_404
*757 TAP_TAPCELL_ROW_1_405
*758 TAP_TAPCELL_ROW_2_406
*759 TAP_TAPCELL_ROW_2_407
*760 TAP_TAPCELL_ROW_2_408
*761 TAP_TAPCELL_ROW_2_409
*762 TAP_TAPCELL_ROW_2_410
*763 TAP_TAPCELL_ROW_2_411
*764 TAP_TAPCELL_ROW_3_412
*765 TAP_TAPCELL_ROW_3_413
*766 TAP_TAPCELL_ROW_3_414
*767 TAP_TAPCELL_ROW_3_415
*768 TAP_TAPCELL_ROW_3_416
*769 TAP_TAPCELL_ROW_3_417
*770 TAP_TAPCELL_ROW_3_418
*771 TAP_TAPCELL_ROW_3_419
*772 TAP_TAPCELL_ROW_3_420
*773 TAP_TAPCELL_ROW_3_421
*774 TAP_TAPCELL_ROW_3_422
*775 TAP_TAPCELL_ROW_5_1_423
*776 TAP_TAPCELL_ROW_5_1_424
*777 TAP_TAPCELL_ROW_5_1_425
*778 TAP_TAPCELL_ROW_6_1_426
*779 TAP_TAPCELL_ROW_6_1_427
*780 TAP_TAPCELL_ROW_6_1_428
*781 TAP_TAPCELL_ROW_7_1_429
*782 TAP_TAPCELL_ROW_7_1_430
*783 TAP_TAPCELL_ROW_7_1_431
*784 TAP_TAPCELL_ROW_7_1_432
*785 TAP_TAPCELL_ROW_7_1_433
*786 TAP_TAPCELL_ROW_7_1_434
*787 TAP_TAPCELL_ROW_65_1_435
*788 TAP_TAPCELL_ROW_65_1_436
*789 TAP_TAPCELL_ROW_65_1_437
*790 TAP_TAPCELL_ROW_65_1_438
*791 TAP_TAPCELL_ROW_65_1_439
*792 TAP_TAPCELL_ROW_65_1_440
*793 TAP_TAPCELL_ROW_66_1_441
*794 TAP_TAPCELL_ROW_66_1_442
*795 TAP_TAPCELL_ROW_66_1_443
*796 TAP_TAPCELL_ROW_67_1_444
*797 TAP_TAPCELL_ROW_67_1_445
*798 TAP_TAPCELL_ROW_67_1_446
*799 TAP_TAPCELL_ROW_68_1_447
*800 TAP_TAPCELL_ROW_68_1_448
*801 TAP_TAPCELL_ROW_68_1_449
*802 TAP_TAPCELL_ROW_69_450
*803 TAP_TAPCELL_ROW_69_451
*804 TAP_TAPCELL_ROW_69_452
*805 TAP_TAPCELL_ROW_69_453
*806 TAP_TAPCELL_ROW_69_454
*807 TAP_TAPCELL_ROW_69_455
*808 TAP_TAPCELL_ROW_69_456
*809 TAP_TAPCELL_ROW_69_457
*810 TAP_TAPCELL_ROW_69_458
*811 TAP_TAPCELL_ROW_69_459
*812 TAP_TAPCELL_ROW_69_460
*813 TAP_TAPCELL_ROW_70_461
*814 TAP_TAPCELL_ROW_70_462
*815 TAP_TAPCELL_ROW_70_463
*816 TAP_TAPCELL_ROW_70_464
*817 TAP_TAPCELL_ROW_70_465
*818 TAP_TAPCELL_ROW_70_466
*819 TAP_TAPCELL_ROW_71_467
*820 TAP_TAPCELL_ROW_71_468
*821 TAP_TAPCELL_ROW_71_469
*822 TAP_TAPCELL_ROW_71_470
*823 TAP_TAPCELL_ROW_71_471
*824 TAP_TAPCELL_ROW_72_472
*825 TAP_TAPCELL_ROW_72_473
*826 TAP_TAPCELL_ROW_72_474
*827 TAP_TAPCELL_ROW_72_475
*828 TAP_TAPCELL_ROW_72_476
*829 TAP_TAPCELL_ROW_72_477
*830 TAP_TAPCELL_ROW_72_478
*831 TAP_TAPCELL_ROW_72_479
*832 TAP_TAPCELL_ROW_72_480
*833 TAP_TAPCELL_ROW_72_481
*834 TAP_TAPCELL_ROW_72_482
*835 TAP_TAPCELL_ROW_4_1_483
*836 TAP_TAPCELL_ROW_4_1_484
*837 TAP_TAPCELL_ROW_4_1_485
*838 hold1
*839 hold2
*840 hold3
*841 hold4
*842 hold5
*843 hold6
*844 hold7
*845 hold8
*846 hold9
*847 hold10
*848 hold11
*849 hold12
*850 hold13
*851 hold14
*852 hold15
*853 hold16
*854 hold17
*855 hold18
*856 hold19
*857 hold20
*858 hold21
*859 hold22
*860 hold23
*861 hold24
*862 hold25
*863 hold26
*864 hold27
*865 hold28
*866 hold29
*867 hold30
*868 hold31
*869 hold32
*870 hold33
*871 hold34
*872 hold35
*873 hold36
*874 hold37
*875 hold38
*876 hold39
*877 hold40
*878 hold41
*879 hold42
*880 hold43
*881 hold44
*882 hold45
*883 hold46
*884 hold47
*885 hold48
*886 hold49
*887 hold50
*888 hold51
*889 hold52
*890 hold53
*891 hold54
*892 hold55
*893 hold56
*894 hold57
*895 clkbuf_regs_0_my_clock
*896 clkbuf_0_clk
*897 clkbuf_1_0__f_clk
*898 clkbuf_1_1__f_clk
*899 clkload0
*900 clkbuf_0_clk_regs
*901 clkbuf_1_0__f_clk_regs
*902 clkbuf_1_1__f_clk_regs
*903 clkload1
*904 delaybuf_0_my_clock
*905 delaybuf_1_my_clock
*906 delaybuf_2_my_clock
*907 hold58
*908 hold59
*909 hold60
*910 hold61
*911 hold62
*912 FILLER_0_0_1
*913 FILLER_0_0_33
*914 FILLER_0_0_65
*915 FILLER_0_0_81
*916 FILLER_0_0_90
*917 FILLER_0_0_122
*918 FILLER_0_0_154
*919 FILLER_0_0_170
*920 FILLER_0_0_179
*921 FILLER_0_0_211
*922 FILLER_0_0_243
*923 FILLER_0_0_259
*924 FILLER_0_0_268
*925 FILLER_0_0_300
*926 FILLER_0_0_332
*927 FILLER_0_0_348
*928 FILLER_0_0_357
*929 FILLER_0_0_389
*930 FILLER_0_0_421
*931 FILLER_0_0_437
*932 FILLER_0_0_446
*933 FILLER_0_0_478
*934 FILLER_0_0_510
*935 FILLER_0_0_526
*936 FILLER_0_0_535
*937 FILLER_0_0_567
*938 FILLER_0_0_599
*939 FILLER_0_0_615
*940 FILLER_0_0_624
*941 FILLER_0_0_656
*942 FILLER_0_0_688
*943 FILLER_0_0_704
*944 FILLER_0_0_713
*945 FILLER_0_0_745
*946 FILLER_0_0_777
*947 FILLER_0_0_793
*948 FILLER_0_0_802
*949 FILLER_0_0_834
*950 FILLER_0_0_866
*951 FILLER_0_0_882
*952 FILLER_0_0_891
*953 FILLER_0_0_923
*954 FILLER_0_0_955
*955 FILLER_0_0_971
*956 FILLER_0_0_980
*957 FILLER_0_0_1012
*958 FILLER_0_0_1044
*959 FILLER_0_1_1
*960 FILLER_0_1_33
*961 FILLER_0_1_65
*962 FILLER_0_1_97
*963 FILLER_0_1_129
*964 FILLER_0_1_161
*965 FILLER_0_1_177
*966 FILLER_0_1_179
*967 FILLER_0_1_211
*968 FILLER_0_1_243
*969 FILLER_0_1_275
*970 FILLER_0_1_307
*971 FILLER_0_1_339
*972 FILLER_0_1_355
*973 FILLER_0_1_357
*974 FILLER_0_1_389
*975 FILLER_0_1_421
*976 FILLER_0_1_453
*977 FILLER_0_1_485
*978 FILLER_0_1_517
*979 FILLER_0_1_533
*980 FILLER_0_1_535
*981 FILLER_0_1_567
*982 FILLER_0_1_599
*983 FILLER_0_1_631
*984 FILLER_0_1_663
*985 FILLER_0_1_695
*986 FILLER_0_1_711
*987 FILLER_0_1_713
*988 FILLER_0_1_745
*989 FILLER_0_1_777
*990 FILLER_0_1_809
*991 FILLER_0_1_841
*992 FILLER_0_1_873
*993 FILLER_0_1_889
*994 FILLER_0_1_891
*995 FILLER_0_1_923
*996 FILLER_0_1_955
*997 FILLER_0_1_987
*998 FILLER_0_1_1019
*999 FILLER_0_1_1035
*1000 FILLER_0_1_1043
*1001 FILLER_0_1_1045
*1002 FILLER_0_2_1
*1003 FILLER_0_2_33
*1004 FILLER_0_2_65
*1005 FILLER_0_2_81
*1006 FILLER_0_2_90
*1007 FILLER_0_2_122
*1008 FILLER_0_2_154
*1009 FILLER_0_2_186
*1010 FILLER_0_2_218
*1011 FILLER_0_2_250
*1012 FILLER_0_2_266
*1013 FILLER_0_2_268
*1014 FILLER_0_2_300
*1015 FILLER_0_2_332
*1016 FILLER_0_2_364
*1017 FILLER_0_2_396
*1018 FILLER_0_2_428
*1019 FILLER_0_2_444
*1020 FILLER_0_2_446
*1021 FILLER_0_2_478
*1022 FILLER_0_2_510
*1023 FILLER_0_2_542
*1024 FILLER_0_2_574
*1025 FILLER_0_2_606
*1026 FILLER_0_2_622
*1027 FILLER_0_2_624
*1028 FILLER_0_2_656
*1029 FILLER_0_2_688
*1030 FILLER_0_2_720
*1031 FILLER_0_2_752
*1032 FILLER_0_2_784
*1033 FILLER_0_2_800
*1034 FILLER_0_2_802
*1035 FILLER_0_2_834
*1036 FILLER_0_2_866
*1037 FILLER_0_2_898
*1038 FILLER_0_2_930
*1039 FILLER_0_2_962
*1040 FILLER_0_2_978
*1041 FILLER_0_2_980
*1042 FILLER_0_2_1012
*1043 FILLER_0_2_1044
*1044 FILLER_0_3_1
*1045 FILLER_0_3_33
*1046 FILLER_0_3_65
*1047 FILLER_0_3_81
*1048 FILLER_0_3_90
*1049 FILLER_0_3_122
*1050 FILLER_0_3_154
*1051 FILLER_0_3_170
*1052 FILLER_0_3_179
*1053 FILLER_0_3_211
*1054 FILLER_0_3_243
*1055 FILLER_0_3_259
*1056 FILLER_0_3_268
*1057 FILLER_0_3_300
*1058 FILLER_0_3_332
*1059 FILLER_0_3_348
*1060 FILLER_0_3_357
*1061 FILLER_0_3_389
*1062 FILLER_0_3_421
*1063 FILLER_0_3_437
*1064 FILLER_0_3_446
*1065 FILLER_0_3_478
*1066 FILLER_0_3_510
*1067 FILLER_0_3_526
*1068 FILLER_0_3_535
*1069 FILLER_0_3_567
*1070 FILLER_0_3_599
*1071 FILLER_0_3_615
*1072 FILLER_0_3_624
*1073 FILLER_0_3_656
*1074 FILLER_0_3_688
*1075 FILLER_0_3_704
*1076 FILLER_0_3_713
*1077 FILLER_0_3_745
*1078 FILLER_0_3_756
*1079 FILLER_0_3_788
*1080 FILLER_0_3_796
*1081 FILLER_0_3_800
*1082 FILLER_0_3_802
*1083 FILLER_0_3_834
*1084 FILLER_0_3_866
*1085 FILLER_0_3_882
*1086 FILLER_0_3_891
*1087 FILLER_0_3_923
*1088 FILLER_0_3_955
*1089 FILLER_0_3_971
*1090 FILLER_0_3_980
*1091 FILLER_0_3_1012
*1092 FILLER_0_3_1044
*1093 FILLER_0_4_1
*1094 FILLER_0_4_33
*1095 FILLER_0_4_65
*1096 FILLER_0_4_81
*1097 FILLER_0_4_90
*1098 FILLER_0_4_122
*1099 FILLER_0_4_154
*1100 FILLER_0_4_186
*1101 FILLER_0_4_218
*1102 FILLER_0_4_250
*1103 FILLER_0_4_266
*1104 FILLER_0_4_268
*1105 FILLER_0_4_300
*1106 FILLER_0_4_332
*1107 FILLER_0_4_364
*1108 FILLER_0_4_396
*1109 FILLER_0_4_428
*1110 FILLER_0_4_444
*1111 FILLER_0_4_446
*1112 FILLER_0_4_478
*1113 FILLER_0_4_510
*1114 FILLER_0_4_526
*1115 FILLER_0_4_534
*1116 FILLER_0_4_536
*1117 FILLER_0_4_1008
*1118 FILLER_0_4_1040
*1119 FILLER_0_4_1044
*1120 FILLER_0_5_1
*1121 FILLER_0_5_33
*1122 FILLER_0_5_65
*1123 FILLER_0_5_97
*1124 FILLER_0_5_129
*1125 FILLER_0_5_161
*1126 FILLER_0_5_177
*1127 FILLER_0_5_179
*1128 FILLER_0_5_211
*1129 FILLER_0_5_243
*1130 FILLER_0_5_275
*1131 FILLER_0_5_307
*1132 FILLER_0_5_339
*1133 FILLER_0_5_355
*1134 FILLER_0_5_357
*1135 FILLER_0_5_389
*1136 FILLER_0_5_421
*1137 FILLER_0_5_453
*1138 FILLER_0_5_485
*1139 FILLER_0_5_517
*1140 FILLER_0_5_533
*1141 FILLER_0_5_535
*1142 FILLER_0_5_1008
*1143 FILLER_0_5_1040
*1144 FILLER_0_5_1044
*1145 FILLER_0_6_1
*1146 FILLER_0_6_33
*1147 FILLER_0_6_65
*1148 FILLER_0_6_81
*1149 FILLER_0_6_90
*1150 FILLER_0_6_122
*1151 FILLER_0_6_154
*1152 FILLER_0_6_186
*1153 FILLER_0_6_218
*1154 FILLER_0_6_250
*1155 FILLER_0_6_266
*1156 FILLER_0_6_268
*1157 FILLER_0_6_276
*1158 FILLER_0_6_280
*1159 FILLER_0_6_282
*1160 FILLER_0_6_296
*1161 FILLER_0_6_328
*1162 FILLER_0_6_360
*1163 FILLER_0_6_392
*1164 FILLER_0_6_424
*1165 FILLER_0_6_440
*1166 FILLER_0_6_444
*1167 FILLER_0_6_446
*1168 FILLER_0_6_478
*1169 FILLER_0_6_510
*1170 FILLER_0_6_526
*1171 FILLER_0_6_534
*1172 FILLER_0_6_536
*1173 FILLER_0_6_1008
*1174 FILLER_0_6_1040
*1175 FILLER_0_6_1044
*1176 FILLER_0_7_1
*1177 FILLER_0_7_33
*1178 FILLER_0_7_65
*1179 FILLER_0_7_81
*1180 FILLER_0_7_90
*1181 FILLER_0_7_122
*1182 FILLER_0_7_154
*1183 FILLER_0_7_170
*1184 FILLER_0_7_179
*1185 FILLER_0_7_211
*1186 FILLER_0_7_243
*1187 FILLER_0_7_259
*1188 FILLER_0_7_268
*1189 FILLER_0_7_300
*1190 FILLER_0_7_332
*1191 FILLER_0_7_348
*1192 FILLER_0_7_357
*1193 FILLER_0_7_389
*1194 FILLER_0_7_421
*1195 FILLER_0_7_437
*1196 FILLER_0_7_446
*1197 FILLER_0_7_478
*1198 FILLER_0_7_510
*1199 FILLER_0_7_526
*1200 FILLER_0_7_535
*1201 FILLER_0_7_1008
*1202 FILLER_0_7_1040
*1203 FILLER_0_7_1044
*1204 FILLER_0_8_1
*1205 FILLER_0_8_33
*1206 FILLER_0_8_456
*1207 FILLER_0_8_488
*1208 FILLER_0_8_520
*1209 FILLER_0_8_536
*1210 FILLER_0_8_1008
*1211 FILLER_0_8_1040
*1212 FILLER_0_8_1044
*1213 FILLER_0_9_1
*1214 FILLER_0_9_33
*1215 FILLER_0_9_456
*1216 FILLER_0_9_488
*1217 FILLER_0_9_520
*1218 FILLER_0_9_536
*1219 FILLER_0_9_1008
*1220 FILLER_0_9_1040
*1221 FILLER_0_9_1044
*1222 FILLER_0_10_1
*1223 FILLER_0_10_33
*1224 FILLER_0_10_456
*1225 FILLER_0_10_488
*1226 FILLER_0_10_520
*1227 FILLER_0_10_536
*1228 FILLER_0_10_1008
*1229 FILLER_0_10_1040
*1230 FILLER_0_10_1044
*1231 FILLER_0_11_1
*1232 FILLER_0_11_33
*1233 FILLER_0_11_456
*1234 FILLER_0_11_488
*1235 FILLER_0_11_520
*1236 FILLER_0_11_536
*1237 FILLER_0_11_1008
*1238 FILLER_0_11_1040
*1239 FILLER_0_11_1044
*1240 FILLER_0_12_1
*1241 FILLER_0_12_33
*1242 FILLER_0_12_456
*1243 FILLER_0_12_488
*1244 FILLER_0_12_520
*1245 FILLER_0_12_536
*1246 FILLER_0_12_1008
*1247 FILLER_0_12_1040
*1248 FILLER_0_12_1044
*1249 FILLER_0_13_1
*1250 FILLER_0_13_33
*1251 FILLER_0_13_456
*1252 FILLER_0_13_488
*1253 FILLER_0_13_520
*1254 FILLER_0_13_536
*1255 FILLER_0_13_1008
*1256 FILLER_0_13_1040
*1257 FILLER_0_13_1044
*1258 FILLER_0_14_1
*1259 FILLER_0_14_33
*1260 FILLER_0_14_456
*1261 FILLER_0_14_488
*1262 FILLER_0_14_520
*1263 FILLER_0_14_536
*1264 FILLER_0_14_1008
*1265 FILLER_0_14_1040
*1266 FILLER_0_14_1044
*1267 FILLER_0_15_1
*1268 FILLER_0_15_33
*1269 FILLER_0_15_456
*1270 FILLER_0_15_488
*1271 FILLER_0_15_520
*1272 FILLER_0_15_536
*1273 FILLER_0_15_1008
*1274 FILLER_0_15_1040
*1275 FILLER_0_15_1044
*1276 FILLER_0_16_1
*1277 FILLER_0_16_33
*1278 FILLER_0_16_456
*1279 FILLER_0_16_488
*1280 FILLER_0_16_520
*1281 FILLER_0_16_536
*1282 FILLER_0_16_1008
*1283 FILLER_0_16_1040
*1284 FILLER_0_16_1044
*1285 FILLER_0_17_1
*1286 FILLER_0_17_33
*1287 FILLER_0_17_456
*1288 FILLER_0_17_488
*1289 FILLER_0_17_520
*1290 FILLER_0_17_536
*1291 FILLER_0_17_1008
*1292 FILLER_0_17_1040
*1293 FILLER_0_17_1044
*1294 FILLER_0_18_1
*1295 FILLER_0_18_33
*1296 FILLER_0_18_456
*1297 FILLER_0_18_488
*1298 FILLER_0_18_520
*1299 FILLER_0_18_536
*1300 FILLER_0_18_1008
*1301 FILLER_0_18_1040
*1302 FILLER_0_18_1044
*1303 FILLER_0_19_1
*1304 FILLER_0_19_33
*1305 FILLER_0_19_456
*1306 FILLER_0_19_488
*1307 FILLER_0_19_520
*1308 FILLER_0_19_536
*1309 FILLER_0_19_1008
*1310 FILLER_0_19_1040
*1311 FILLER_0_19_1044
*1312 FILLER_0_20_1
*1313 FILLER_0_20_33
*1314 FILLER_0_20_456
*1315 FILLER_0_20_488
*1316 FILLER_0_20_520
*1317 FILLER_0_20_536