*SPEF "ieee 1481-1999"
*DESIGN "enfasi"
*DATE "23:35:44 Friday February 28, 2025"
*VENDOR "The OpenROAD Project"
*PROGRAM "OpenROAD"
*VERSION "13116aa29cb37d21fc378bb4ce10389ebe285f98"
*DESIGN_FLOW "NAME_SCOPE LOCAL" "PIN_CAP NONE"
*DIVIDER /
*DELIMITER :
*BUS_DELIMITER []
*T_UNIT 1 NS
*C_UNIT 1 PF
*R_UNIT 1 OHM
*L_UNIT 1 HENRY

*NAME_MAP
*1 D1\.p\[0\]
*2 D1\.p\[10\]
*3 D1\.p\[11\]
*4 D1\.p\[1\]
*5 D1\.p\[2\]
*6 D1\.p\[3\]
*7 D1\.p\[4\]
*8 D1\.p\[5\]
*9 D1\.p\[6\]
*10 D1\.p\[7\]
*11 D1\.p\[8\]
*12 D1\.p\[9\]
*13 D1\.z0\[0\]
*14 D1\.z0\[10\]
*15 D1\.z0\[1\]
*16 D1\.z0\[2\]
*17 D1\.z0\[3\]
*18 D1\.z0\[4\]
*19 D1\.z0\[5\]
*20 D1\.z0\[6\]
*21 D1\.z0\[7\]
*22 D1\.z0\[8\]
*23 D1\.z0\[9\]
*24 D1\.z1\[0\]
*25 D1\.z1\[10\]
*26 D1\.z1\[1\]
*27 D1\.z1\[2\]
*28 D1\.z1\[3\]
*29 D1\.z1\[4\]
*30 D1\.z1\[5\]
*31 D1\.z1\[6\]
*32 D1\.z1\[7\]
*33 D1\.z1\[8\]
*34 D1\.z1\[9\]
*35 D1\.z2\[0\]
*36 D1\.z2\[10\]
*37 D1\.z2\[1\]
*38 D1\.z2\[2\]
*39 D1\.z2\[3\]
*40 D1\.z2\[4\]
*41 D1\.z2\[5\]
*42 D1\.z2\[6\]
*43 D1\.z2\[7\]
*44 D1\.z2\[8\]
*45 D1\.z2\[9\]
*46 D1\.z3\[0\]
*47 D1\.z3\[10\]
*48 D1\.z3\[1\]
*49 D1\.z3\[2\]
*50 D1\.z3\[3\]
*51 D1\.z3\[4\]
*52 D1\.z3\[5\]
*53 D1\.z3\[6\]
*54 D1\.z3\[7\]
*55 D1\.z3\[8\]
*56 D1\.z3\[9\]
*57 D1\.z4\[0\]
*58 D1\.z4\[10\]
*59 D1\.z4\[1\]
*60 D1\.z4\[2\]
*61 D1\.z4\[3\]
*62 D1\.z4\[4\]
*63 D1\.z4\[5\]
*64 D1\.z4\[6\]
*65 D1\.z4\[7\]
*66 D1\.z4\[8\]
*67 D1\.z4\[9\]
*68 D2\.p0\[0\]
*69 D2\.p0\[10\]
*70 D2\.p0\[11\]
*71 D2\.p0\[1\]
*72 D2\.p0\[2\]
*73 D2\.p0\[3\]
*74 D2\.p0\[4\]
*75 D2\.p0\[5\]
*76 D2\.p0\[6\]
*77 D2\.p0\[7\]
*78 D2\.p0\[8\]
*79 D2\.p0\[9\]
*80 D2\.p1\[0\]
*81 D2\.p1\[10\]
*82 D2\.p1\[11\]
*83 D2\.p1\[1\]
*84 D2\.p1\[2\]
*85 D2\.p1\[3\]
*86 D2\.p1\[4\]
*87 D2\.p1\[5\]
*88 D2\.p1\[6\]
*89 D2\.p1\[7\]
*90 D2\.p1\[8\]
*91 D2\.p1\[9\]
*92 D2\.p2\[0\]
*93 D2\.p2\[10\]
*94 D2\.p2\[11\]
*95 D2\.p2\[1\]
*96 D2\.p2\[2\]
*97 D2\.p2\[3\]
*98 D2\.p2\[4\]
*99 D2\.p2\[5\]
*100 D2\.p2\[6\]
*101 D2\.p2\[7\]
*102 D2\.p2\[8\]
*103 D2\.p2\[9\]
*104 D2\.p3\[0\]
*105 D2\.p3\[10\]
*106 D2\.p3\[11\]
*107 D2\.p3\[1\]
*108 D2\.p3\[2\]
*109 D2\.p3\[3\]
*110 D2\.p3\[4\]
*111 D2\.p3\[5\]
*112 D2\.p3\[6\]
*113 D2\.p3\[7\]
*114 D2\.p3\[8\]
*115 D2\.p3\[9\]
*116 D2\.p4\[0\]
*117 D2\.p4\[10\]
*118 D2\.p4\[11\]
*119 D2\.p4\[1\]
*120 D2\.p4\[2\]
*121 D2\.p4\[3\]
*122 D2\.p4\[4\]
*123 D2\.p4\[5\]
*124 D2\.p4\[6\]
*125 D2\.p4\[7\]
*126 D2\.p4\[8\]
*127 D2\.p4\[9\]
*128 D2\.p5\[0\]
*129 D2\.p5\[10\]
*130 D2\.p5\[11\]
*131 D2\.p5\[1\]
*132 D2\.p5\[2\]
*133 D2\.p5\[3\]
*134 D2\.p5\[4\]
*135 D2\.p5\[5\]
*136 D2\.p5\[6\]
*137 D2\.p5\[7\]
*138 D2\.p5\[8\]
*139 D2\.p5\[9\]
*140 D2\.p6\[0\]
*141 D2\.p6\[10\]
*142 D2\.p6\[11\]
*143 D2\.p6\[1\]
*144 D2\.p6\[2\]
*145 D2\.p6\[3\]
*146 D2\.p6\[4\]
*147 D2\.p6\[5\]
*148 D2\.p6\[6\]
*149 D2\.p6\[7\]
*150 D2\.p6\[8\]
*151 D2\.p6\[9\]
*152 D2\.p7\[0\]
*153 D2\.p7\[10\]
*154 D2\.p7\[11\]
*155 D2\.p7\[1\]
*156 D2\.p7\[2\]
*157 D2\.p7\[3\]
*158 D2\.p7\[4\]
*159 D2\.p7\[5\]
*160 D2\.p7\[6\]
*161 D2\.p7\[7\]
*162 D2\.p7\[8\]
*163 D2\.p7\[9\]
*164 _0000_
*165 _0001_
*166 _0002_
*167 _0003_
*168 _0004_
*169 _0005_
*170 _0006_
*171 _0007_
*172 _0008_
*173 _0009_
*174 _0010_
*175 _0011_
*176 _0012_
*177 _0013_
*178 _0014_
*179 _0015_
*180 _0016_
*181 _0017_
*182 _0018_
*183 _0019_
*184 _0020_
*185 _0021_
*186 _0022_
*187 _0023_
*188 _0024_
*189 _0025_
*190 _0026_
*191 _0027_
*192 _0028_
*193 _0029_
*194 _0030_
*195 _0031_
*196 _0032_
*197 _0033_
*198 _0034_
*199 _0035_
*200 _0036_
*201 _0037_
*202 _0038_
*203 _0039_
*204 _0040_
*205 _0041_
*206 _0042_
*207 _0043_
*208 _0044_
*209 _0045_
*210 _0046_
*211 _0047_
*212 _0048_
*213 _0049_
*214 _0050_
*215 _0051_
*216 _0052_
*217 _0053_
*218 _0054_
*219 _0055_
*220 _0056_
*221 _0057_
*222 _0058_
*223 _0059_
*224 _0060_
*225 _0061_
*226 _0062_
*227 _0063_
*228 _0064_
*229 _0065_
*230 _0066_
*231 _0067_
*232 _0068_
*233 _0069_
*234 _0070_
*235 _0071_
*236 _0072_
*237 _0073_
*238 _0074_
*239 _0075_
*240 _0076_
*241 _0077_
*242 _0078_
*243 _0079_
*244 _0080_
*245 _0081_
*246 _0082_
*247 _0083_
*248 _0084_
*249 _0085_
*250 _0086_
*251 _0087_
*252 _0088_
*253 _0089_
*254 _0090_
*255 _0091_
*256 _0092_
*257 _0093_
*258 _0094_
*259 _0095_
*260 _0096_
*261 _0097_
*262 _0098_
*263 _0099_
*264 _0100_
*265 _0101_
*266 _0102_
*267 _0103_
*268 _0104_
*269 _0105_
*270 _0106_
*271 _0107_
*272 _0108_
*273 _0109_
*274 _0110_
*275 _0111_
*276 _0112_
*277 _0113_
*278 _0114_
*279 _0115_
*280 _0116_
*281 _0117_
*282 _0118_
*283 _0119_
*284 _0120_
*285 _0121_
*286 _0122_
*287 _0123_
*288 _0124_
*289 _0125_
*290 _0126_
*291 _0127_
*292 _0128_
*293 _0129_
*294 _0130_
*295 _0131_
*296 _0132_
*297 _0133_
*298 _0134_
*299 _0135_
*300 _0136_
*301 _0137_
*302 _0138_
*303 _0139_
*304 _0140_
*305 _0141_
*306 _0142_
*307 _0143_
*308 _0144_
*309 _0145_
*310 _0146_
*311 _0147_
*312 _0148_
*313 _0149_
*314 _0150_
*315 _0151_
*316 _0152_
*317 _0153_
*318 _0154_
*319 _0155_
*320 _0156_
*321 _0157_
*322 _0158_
*323 _0159_
*324 _0160_
*325 _0161_
*326 _0162_
*327 _0163_
*328 _0164_
*329 _0165_
*330 _0166_
*331 _0167_
*332 _0168_
*333 _0169_
*334 _0170_
*335 _0171_
*336 _0172_
*337 _0173_
*338 _0174_
*339 _0175_
*340 _0176_
*341 _0177_
*342 _0178_
*343 _0179_
*344 _0180_
*345 _0181_
*346 _0182_
*347 _0183_
*348 _0184_
*349 _0185_
*350 _0186_
*351 _0187_
*352 _0188_
*353 _0189_
*354 _0190_
*355 _0191_
*356 _0192_
*357 _0193_
*358 _0194_
*359 _0195_
*360 _0196_
*361 _0197_
*362 _0198_
*363 _0199_
*364 _0200_
*365 _0201_
*366 _0202_
*367 _0203_
*368 _0204_
*369 _0205_
*370 _0206_
*371 _0207_
*372 _0208_
*373 _0209_
*374 _0210_
*375 _0211_
*376 _0212_
*377 _0213_
*378 _0214_
*379 _0215_
*380 _0216_
*381 _0217_
*382 _0218_
*383 _0219_
*384 _0220_
*385 _0221_
*386 _0222_
*387 _0223_
*388 _0224_
*389 _0225_
*390 _0226_
*391 _0227_
*392 _0228_
*393 _0229_
*394 _0230_
*395 _0231_
*396 _0232_
*397 _0233_
*398 _0234_
*399 _0235_
*400 _0236_
*401 _0237_
*402 _0238_
*403 _0239_
*404 _0240_
*405 _0241_
*406 _0242_
*407 _0243_
*408 _0244_
*409 _0245_
*410 _0246_
*411 _0247_
*412 _0248_
*413 _0249_
*414 _0250_
*415 _0251_
*416 _0252_
*417 _0253_
*418 _0254_
*419 _0255_
*420 _0256_
*421 _0257_
*422 _0258_
*423 _0259_
*424 _0260_
*425 _0261_
*426 _0262_
*427 _0263_
*428 _0264_
*429 _0265_
*430 _0266_
*431 _0267_
*432 _0268_
*433 _0269_
*434 _0270_
*435 _0271_
*436 _0272_
*437 _0273_
*438 _0274_
*439 _0275_
*440 _0276_
*441 _0277_
*442 _0278_
*443 _0279_
*444 _0280_
*445 _0281_
*446 _0282_
*447 _0283_
*448 _0284_
*449 _0285_
*450 _0286_
*451 _0287_
*452 _0288_
*453 _0289_
*454 _0290_
*455 _0291_
*456 _0292_
*457 _0293_
*458 _0294_
*459 _0295_
*460 _0296_
*461 _0297_
*462 _0298_
*463 _0299_
*464 _0300_
*465 _0301_
*466 _0302_
*467 _0303_
*468 _0304_
*469 _0305_
*470 _0306_
*471 _0307_
*472 _0308_
*473 _0309_
*474 _0310_
*475 _0311_
*476 _0312_
*477 _0313_
*478 _0314_
*479 _0315_
*480 _0316_
*481 _0317_
*482 _0318_
*483 _0319_
*484 _0320_
*485 _0321_
*486 _0322_
*487 _0323_
*488 _0324_
*489 _0325_
*490 _0326_
*491 _0327_
*492 _0328_
*493 _0329_
*494 _0330_
*495 _0331_
*496 _0332_
*497 _0333_
*498 _0334_
*499 _0335_
*500 _0336_
*501 _0337_
*502 _0338_
*503 _0339_
*504 _0340_
*505 _0341_
*506 _0342_
*507 _0343_
*508 _0344_
*509 _0345_
*510 _0346_
*511 _0347_
*512 _0348_
*513 _0349_
*514 _0350_
*515 _0351_
*516 _0352_
*517 _0353_
*518 _0354_
*519 _0355_
*520 _0356_
*521 _0357_
*522 _0358_
*523 _0359_
*524 _0360_
*525 _0361_
*526 _0362_
*527 _0363_
*528 _0364_
*529 _0365_
*530 _0366_
*531 _0367_
*532 _0368_
*533 _0369_
*534 _0370_
*535 _0371_
*536 _0372_
*537 _0373_
*538 _0374_
*539 _0375_
*540 _0376_
*541 _0377_
*542 _0378_
*543 _0379_
*544 _0380_
*545 _0381_
*546 _0382_
*547 _0383_
*548 _0384_
*549 _0385_
*550 _0386_
*551 _0387_
*552 _0388_
*553 _0389_
*554 _0390_
*555 _0391_
*556 _0392_
*557 _0393_
*558 _0394_
*559 _0395_
*560 _0396_
*561 _0397_
*562 _0398_
*563 _0399_
*564 _0400_
*565 _0401_
*566 _0402_
*567 _0403_
*568 _0404_
*569 _0405_
*570 _0406_
*571 _0407_
*572 _0408_
*573 _0409_
*574 _0410_
*575 _0411_
*576 _0412_
*577 _0413_
*578 _0414_
*579 _0415_
*580 _0416_
*581 _0417_
*582 _0418_
*583 _0419_
*584 _0420_
*585 _0421_
*586 _0422_
*587 _0423_
*588 _0424_
*589 _0425_
*590 _0426_
*591 _0427_
*592 _0428_
*593 _0429_
*594 _0430_
*595 _0431_
*596 _0432_
*597 _0433_
*598 _0434_
*599 _0435_
*600 _0436_
*601 _0437_
*602 _0438_
*603 _0439_
*604 _0440_
*605 _0441_
*606 _0442_
*607 _0443_
*608 _0444_
*609 _0445_
*610 _0446_
*611 _0447_
*612 _0448_
*613 _0449_
*614 _0450_
*615 _0451_
*616 _0452_
*617 _0453_
*618 _0454_
*619 _0455_
*620 _0456_
*621 _0457_
*622 _0458_
*623 _0459_
*624 _0460_
*625 _0461_
*626 _0462_
*627 _0463_
*628 _0464_
*629 _0465_
*630 _0466_
*631 _0467_
*632 _0468_
*633 _0469_
*634 _0470_
*635 _0471_
*636 _0472_
*637 _0473_
*638 _0474_
*639 _0475_
*640 _0476_
*641 _0477_
*642 _0478_
*643 _0479_
*644 _0480_
*645 _0481_
*646 _0482_
*647 _0483_
*648 _0484_
*649 _0485_
*650 _0486_
*651 _0487_
*652 _0488_
*653 _0489_
*654 _0490_
*655 _0491_
*656 _0492_
*657 _0493_
*658 _0494_
*659 _0495_
*660 _0496_
*661 _0497_
*662 _0498_
*663 _0499_
*664 _0500_
*665 _0501_
*666 _0502_
*667 _0503_
*668 _0504_
*669 _0505_
*670 _0506_
*671 _0507_
*672 _0508_
*673 _0509_
*674 _0510_
*675 _0511_
*676 _0512_
*677 _0513_
*678 _0514_
*679 _0515_
*680 _0516_
*681 _0517_
*682 _0518_
*683 _0519_
*684 _0520_
*685 _0521_
*686 _0522_
*687 _0523_
*688 _0524_
*689 _0525_
*690 _0526_
*691 _0527_
*692 _0528_
*693 _0529_
*694 _0530_
*695 _0531_
*696 _0532_
*697 _0533_
*698 _0534_
*699 _0535_
*700 _0536_
*701 _0537_
*702 _0538_
*703 _0539_
*704 _0540_
*705 _0541_
*706 _0542_
*707 _0543_
*708 _0544_
*709 _0545_
*710 _0546_
*711 _0547_
*712 _0548_
*713 _0549_
*714 _0550_
*715 _0551_
*716 _0552_
*717 _0553_
*718 _0554_
*719 _0555_
*720 _0556_
*721 _0557_
*722 _0558_
*723 _0559_
*724 _0560_
*725 _0561_
*726 _0562_
*727 _0563_
*728 _0564_
*729 _0565_
*730 _0566_
*731 _0567_
*732 _0568_
*733 _0569_
*734 _0570_
*735 _0571_
*736 _0572_
*737 _0573_
*738 _0574_
*739 _0575_
*740 _0576_
*741 _0577_
*742 _0578_
*743 _0579_
*744 _0580_
*745 _0581_
*746 _0582_
*747 _0583_
*748 _0584_
*749 _0585_
*750 _0586_
*751 _0587_
*752 _0588_
*753 _0589_
*754 _0590_
*755 _0591_
*756 _0592_
*757 _0593_
*758 _0594_
*759 _0595_
*760 _0596_
*761 _0597_
*762 _0598_
*763 _0599_
*764 _0600_
*765 _0601_
*766 _0602_
*767 _0603_
*768 _0604_
*769 _0605_
*770 _0606_
*771 _0607_
*772 _0608_
*773 _0609_
*774 _0610_
*775 _0611_
*776 _0612_
*777 _0613_
*778 _0614_
*779 _0615_
*780 _0616_
*781 _0617_
*782 _0618_
*783 _0619_
*784 _0620_
*785 _0621_
*786 _0622_
*787 _0623_
*788 _0624_
*789 _0625_
*790 _0626_
*791 _0627_
*792 _0628_
*793 _0629_
*794 _0630_
*795 _0631_
*796 _0632_
*797 _0633_
*798 _0634_
*799 _0635_
*800 _0636_
*801 _0637_
*802 _0638_
*803 _0639_
*804 _0640_
*805 _0641_
*806 _0642_
*807 _0643_
*808 _0644_
*809 _0645_
*810 _0646_
*811 _0647_
*812 _0648_
*813 _0649_
*814 _0650_
*815 _0651_
*816 _0652_
*817 _0653_
*818 _0654_
*819 _0655_
*820 _0656_
*821 _0657_
*822 _0658_
*823 _0659_
*824 _0660_
*825 _0661_
*826 _0662_
*827 _0663_
*828 _0664_
*829 _0665_
*830 _0666_
*831 _0667_
*832 _0668_
*833 _0669_
*834 _0670_
*835 _0671_
*836 _0672_
*837 _0673_
*838 _0674_
*839 _0675_
*840 _0676_
*841 _0677_
*842 _0678_
*843 _0679_
*844 _0680_
*845 _0681_
*846 _0682_
*847 _0683_
*848 _0684_
*849 _0685_
*850 _0686_
*851 _0687_
*852 _0688_
*853 _0689_
*854 _0690_
*855 _0691_
*856 _0692_
*857 _0693_
*858 _0694_
*859 _0695_
*860 _0696_
*861 _0697_
*862 _0698_
*863 _0699_
*864 _0700_
*865 _0701_
*866 _0702_
*867 _0703_
*868 _0704_
*869 _0705_
*870 _0706_
*871 _0707_
*872 _0708_
*873 _0709_
*874 _0710_
*875 _0711_
*876 _0712_
*877 _0713_
*878 _0714_
*879 _0715_
*880 _0716_
*881 _0717_
*882 _0718_
*883 _0719_
*884 _0720_
*885 _0721_
*886 _0722_
*887 _0723_
*888 _0724_
*889 _0725_
*890 _0726_
*891 _0727_
*892 _0728_
*893 _0729_
*894 _0730_
*895 _0731_
*896 _0732_
*897 _0733_
*898 _0734_
*899 _0735_
*900 _0736_
*901 _0737_
*902 _0738_
*903 _0739_
*904 _0740_
*905 _0741_
*906 _0742_
*907 _0743_
*908 _0744_
*909 _0745_
*910 _0746_
*911 _0747_
*912 _0748_
*913 _0749_
*914 _0750_
*915 _0751_
*916 _0752_
*917 _0753_
*918 _0754_
*919 _0755_
*920 _0756_
*921 _0757_
*922 _0758_
*923 _0759_
*924 _0760_
*925 _0761_
*926 _0762_
*927 _0763_
*928 _0764_
*929 _0765_
*930 _0766_
*931 _0767_
*932 _0768_
*933 _0769_
*934 _0770_
*935 _0771_
*936 _0772_
*937 _0773_
*938 _0774_
*939 _0775_
*940 _0776_
*941 _0777_
*942 _0778_
*943 _0779_
*944 _0780_
*945 _0781_
*946 _0782_
*947 _0783_
*948 _0784_
*949 _0785_
*950 _0786_
*951 _0787_
*952 _0788_
*953 _0789_
*954 _0790_
*955 _0791_
*956 _0792_
*957 _0793_
*958 _0794_
*959 _0795_
*960 _0796_
*961 _0797_
*962 _0798_
*963 _0799_
*964 _0800_
*965 _0801_
*966 _0802_
*967 _0803_
*968 _0804_
*969 _0805_
*970 _0806_
*971 _0807_
*972 _0808_
*973 _0809_
*974 _0810_
*975 _0811_
*976 _0812_
*977 _0813_
*978 _0814_
*979 _0815_
*980 _0816_
*981 _0817_
*982 _0818_
*983 _0819_
*984 _0820_
*985 _0821_
*986 _0822_
*987 _0823_
*988 _0824_
*989 _0825_
*990 _0826_
*991 _0827_
*992 _0828_
*993 _0829_
*994 _0830_
*995 _0831_
*996 _0832_
*997 _0833_
*998 _0834_
*999 _0835_
*1000 _0836_
*1001 _0837_
*1002 _0838_
*1003 _0839_
*1004 _0840_
*1005 _0841_
*1006 _0842_
*1007 _0843_
*1008 _0844_
*1009 _0845_
*1010 _0846_
*1011 _0847_
*1012 _0848_
*1013 _0849_
*1014 _0850_
*1015 _0851_
*1016 _0852_
*1017 _0853_
*1018 _0854_
*1019 _0855_
*1020 _0856_
*1021 _0857_
*1022 _0858_
*1023 _0859_
*1024 _0860_
*1025 _0861_
*1026 _0862_
*1027 _0863_
*1028 _0864_
*1029 _0865_
*1030 _0866_
*1031 _0867_
*1032 _0868_
*1033 _0869_
*1034 _0870_
*1035 _0871_
*1036 _0872_
*1037 _0873_
*1038 _0874_
*1039 _0875_
*1040 _0876_
*1041 _0877_
*1042 _0878_
*1043 _0879_
*1044 _0880_
*1045 _0881_
*1046 _0882_
*1047 _0883_
*1048 _0884_
*1049 _0885_
*1050 _0886_
*1051 _0887_
*1052 _0888_
*1053 _0889_
*1054 _0890_
*1055 _0891_
*1056 _0892_
*1057 _0893_
*1058 _0894_
*1059 _0895_
*1060 _0896_
*1061 _0897_
*1062 _0898_
*1063 _0899_
*1064 _0900_
*1065 _0901_
*1066 _0902_
*1067 _0903_
*1068 _0904_
*1069 _0905_
*1070 _0906_
*1071 _0907_
*1072 _0908_
*1073 _0909_
*1074 _0910_
*1075 _0911_
*1076 _0912_
*1077 _0913_
*1078 _0914_
*1079 _0915_
*1080 _0916_
*1081 _0917_
*1082 _0918_
*1083 _0919_
*1084 _0920_
*1085 _0921_
*1086 _0922_
*1087 _0923_
*1088 _0924_
*1089 _0925_
*1090 _0926_
*1091 _0927_
*1092 _0928_
*1093 _0929_
*1094 _0930_
*1095 _0931_
*1096 _0932_
*1097 _0933_
*1098 _0934_
*1099 _0935_
*1100 _0936_
*1101 _0937_
*1102 _0938_
*1103 _0939_
*1104 _0940_
*1105 _0941_
*1106 _0942_
*1107 _0943_
*1108 _0944_
*1109 _0945_
*1110 _0946_
*1111 _0947_
*1112 _0948_
*1113 _0949_
*1114 _0950_
*1115 _0951_
*1116 _0952_
*1117 _0953_
*1118 _0954_
*1119 _0955_
*1120 _0956_
*1121 _0957_
*1122 _0958_
*1123 _0959_
*1124 _0960_
*1125 _0961_
*1126 _0962_
*1127 _0963_
*1128 _0964_
*1129 _0965_
*1130 _0966_
*1131 _0967_
*1132 _0968_
*1133 _0969_
*1134 _0970_
*1135 _0971_
*1136 _0972_
*1137 _0973_
*1138 _0974_
*1139 _0975_
*1140 _0976_
*1141 _0977_
*1142 _0978_
*1143 _0979_
*1144 _0980_
*1145 _0981_
*1146 _0982_
*1147 _0983_
*1148 _0984_
*1149 _0985_
*1150 _0986_
*1151 _0987_
*1152 _0988_
*1153 _0989_
*1154 _0990_
*1155 _0991_
*1156 _0992_
*1157 _0993_
*1158 _0994_
*1159 _0995_
*1160 _0996_
*1161 _0997_
*1162 _0998_
*1163 _0999_
*1164 _1000_
*1165 _1001_
*1166 _1002_
*1167 _1003_
*1168 _1004_
*1169 _1005_
*1170 _1006_
*1171 _1007_
*1172 _1008_
*1173 _1009_
*1174 _1010_
*1175 _1011_
*1176 _1012_
*1177 _1013_
*1178 _1014_
*1179 _1015_
*1180 _1016_
*1181 _1017_
*1182 _1018_
*1183 _1019_
*1184 _1020_
*1185 _1021_
*1186 _1022_
*1187 _1023_
*1188 _1024_
*1189 _1025_
*1190 _1026_
*1191 _1027_
*1192 _1028_
*1193 _1029_
*1194 _1030_
*1195 _1031_
*1196 _1032_
*1197 _1033_
*1198 _1034_
*1199 _1035_
*1200 _1036_
*1201 _1037_
*1202 _1038_
*1203 _1039_
*1204 _1040_
*1205 _1041_
*1206 _1042_
*1207 _1043_
*1208 _1044_
*1209 _1045_
*1210 _1046_
*1211 _1047_
*1212 _1048_
*1213 _1049_
*1214 _1050_
*1215 _1051_
*1216 _1052_
*1217 _1053_
*1218 _1054_
*1219 _1055_
*1220 _1056_
*1221 _1057_
*1222 _1058_
*1223 _1059_
*1224 _1060_
*1225 _1061_
*1226 _1062_
*1227 _1063_
*1228 _1064_
*1229 _1065_
*1230 _1066_
*1231 _1067_
*1232 _1068_
*1233 _1069_
*1234 _1070_
*1235 _1071_
*1236 _1072_
*1237 _1073_
*1238 _1074_
*1239 _1075_
*1240 _1076_
*1241 _1077_
*1242 _1078_
*1243 _1079_
*1244 _1080_
*1245 _1081_
*1246 _1082_
*1247 _1083_
*1248 _1084_
*1249 _1085_
*1250 _1086_
*1251 _1087_
*1252 _1088_
*1253 _1089_
*1254 _1090_
*1255 _1091_
*1256 _1092_
*1257 _1093_
*1258 _1094_
*1259 _1095_
*1260 _1096_
*1261 _1097_
*1262 _1098_
*1263 _1099_
*1264 _1100_
*1265 _1101_
*1266 _1102_
*1267 _1103_
*1268 _1104_
*1269 _1105_
*1270 _1106_
*1271 _1107_
*1272 _1108_
*1273 _1109_
*1274 _1110_
*1275 _1111_
*1276 _1112_
*1277 _1113_
*1278 _1114_
*1279 _1115_
*1280 _1116_
*1281 _1117_
*1282 _1118_
*1283 _1119_
*1284 _1120_
*1285 _1121_
*1286 _1122_
*1287 _1123_
*1288 _1124_
*1289 _1125_
*1290 _1126_
*1291 _1127_
*1292 _1128_
*1293 _1129_
*1294 _1130_
*1295 _1131_
*1296 _1132_
*1297 _1133_
*1298 _1134_
*1299 _1135_
*1300 _1136_
*1301 _1137_
*1302 _1138_
*1303 _1139_
*1304 _1140_
*1305 _1141_
*1306 _1142_
*1307 _1143_
*1308 _1144_
*1309 _1145_
*1310 _1146_
*1311 _1147_
*1312 _1148_
*1313 _1149_
*1314 _1150_
*1315 _1151_
*1316 _1152_
*1317 _1153_
*1318 _1154_
*1319 _1155_
*1320 _1156_
*1321 _1157_
*1322 _1158_
*1323 _1159_
*1324 _1160_
*1325 _1161_
*1326 _1162_
*1327 _1163_
*1328 _1164_
*1329 _1165_
*1330 _1166_
*1331 _1167_
*1332 _1168_
*1333 _1169_
*1334 _1170_
*1335 _1171_
*1336 _1172_
*1337 _1173_
*1338 _1174_
*1339 _1175_
*1340 _1176_
*1341 _1177_
*1342 _1178_
*1343 _1179_
*1344 _1180_
*1345 _1181_
*1346 _1182_
*1347 _1183_
*1348 _1184_
*1349 _1185_
*1350 _1186_
*1351 _1187_
*1352 _1188_
*1353 _1189_
*1354 _1190_
*1355 _1191_
*1356 _1192_
*1357 _1193_
*1358 _1194_
*1359 _1195_
*1360 _1196_
*1361 _1197_
*1362 _1198_
*1363 _1199_
*1364 _1200_
*1365 _1201_
*1366 _1202_
*1367 _1203_
*1368 _1204_
*1369 _1205_
*1370 _1206_
*1371 _1207_
*1372 _1208_
*1373 _1209_
*1374 _1210_
*1375 _1211_
*1376 _1212_
*1377 _1213_
*1378 _1214_
*1379 _1215_
*1380 _1216_
*1381 _1217_
*1382 _1218_
*1383 _1219_
*1384 _1220_
*1385 _1221_
*1386 _1222_
*1387 _1223_
*1388 _1224_
*1389 _1225_
*1390 _1226_
*1391 _1227_
*1392 _1228_
*1393 _1229_
*1394 _1230_
*1395 _1231_
*1396 _1232_
*1397 _1233_
*1398 _1234_
*1399 _1235_
*1400 _1236_
*1401 _1237_
*1402 _1238_
*1403 _1239_
*1404 _1240_
*1405 _1241_
*1406 _1242_
*1407 _1243_
*1408 _1244_
*1409 _1245_
*1410 _1246_
*1411 _1247_
*1412 _1248_
*1413 _1249_
*1414 _1250_
*1415 _1251_
*1416 _1252_
*1417 _1253_
*1418 _1254_
*1419 _1255_
*1420 _1256_
*1421 _1257_
*1422 _1258_
*1423 _1259_
*1424 _1260_
*1425 _1261_
*1426 _1262_
*1427 _1263_
*1428 _1264_
*1429 _1265_
*1430 _1266_
*1431 _1267_
*1432 _1268_
*1433 _1269_
*1434 _1270_
*1435 _1271_
*1436 _1272_
*1437 _1273_
*1438 _1274_
*1439 _1275_
*1440 _1276_
*1441 _1277_
*1442 _1278_
*1443 _1279_
*1444 _1280_
*1445 _1281_
*1446 _1282_
*1447 _1283_
*1448 _1284_
*1449 _1285_
*1450 _1286_
*1451 _1287_
*1452 _1288_
*1453 _1289_
*1454 _1290_
*1455 _1291_
*1456 _1292_
*1457 _1293_
*1458 _1294_
*1459 _1295_
*1460 _1296_
*1461 _1297_
*1462 _1298_
*1463 _1299_
*1464 _1300_
*1465 _1301_
*1466 _1302_
*1467 _1303_
*1468 _1304_
*1469 _1305_
*1470 _1306_
*1471 _1307_
*1472 _1308_
*1473 _1309_
*1474 _1310_
*1475 _1311_
*1476 _1312_
*1477 _1313_
*1478 _1314_
*1479 _1315_
*1480 _1316_
*1481 _1317_
*1482 _1318_
*1483 _1319_
*1484 _1320_
*1485 _1321_
*1486 _1322_
*1487 _1323_
*1488 _1324_
*1489 _1325_
*1490 _1326_
*1491 _1327_
*1492 _1328_
*1493 _1329_
*1494 _1330_
*1495 _1331_
*1496 _1332_
*1497 _1333_
*1498 _1334_
*1499 _1335_
*1500 _1336_
*1501 _1337_
*1502 _1338_
*1503 _1339_
*1504 _1340_
*1505 _1341_
*1506 _1342_
*1507 _1343_
*1508 _1344_
*1509 _1345_
*1510 _1346_
*1511 _1347_
*1512 _1348_
*1513 _1349_
*1514 _1350_
*1515 _1351_
*1516 _1352_
*1517 _1353_
*1518 _1354_
*1519 _1355_
*1520 _1356_
*1521 _1357_
*1522 _1358_
*1523 _1359_
*1524 _1360_
*1525 _1361_
*1526 _1362_
*1527 _1363_
*1528 _1364_
*1529 _1365_
*1530 _1366_
*1531 _1367_
*1532 _1368_
*1533 _1369_
*1534 _1370_
*1535 _1371_
*1536 _1372_
*1537 _1373_
*1538 _1374_
*1539 _1375_
*1540 _1376_
*1541 _1377_
*1542 _1378_
*1543 _1379_
*1544 _1380_
*1545 _1381_
*1546 _1382_
*1547 _1383_
*1548 _1384_
*1549 _1385_
*1550 _1386_
*1551 _1387_
*1552 _1388_
*1553 _1389_
*1554 _1390_
*1555 _1391_
*1556 _1392_
*1557 _1393_
*1558 _1394_
*1559 _1395_
*1560 _1396_
*1561 _1397_
*1562 _1398_
*1563 _1399_
*1564 _1400_
*1565 _1401_
*1566 _1402_
*1567 _1403_
*1568 _1404_
*1569 _1405_
*1570 _1406_
*1571 _1407_
*1572 _1408_
*1573 _1409_
*1574 _1410_
*1575 _1411_
*1576 _1412_
*1577 _1413_
*1578 _1414_
*1579 _1415_
*1580 _1416_
*1581 _1417_
*1582 _1418_
*1583 _1419_
*1584 _1420_
*1585 _1421_
*1586 _1422_
*1587 _1423_
*1588 _1424_
*1589 _1425_
*1590 _1426_
*1591 _1427_
*1592 _1428_
*1593 _1429_
*1594 _1430_
*1595 _1431_
*1596 _1432_
*1597 _1433_
*1598 _1434_
*1599 _1435_
*1600 _1436_
*1601 _1437_
*1602 _1438_
*1603 _1439_
*1604 _1440_
*1605 _1441_
*1606 _1442_
*1607 _1443_
*1608 _1444_
*1609 _1445_
*1610 _1446_
*1611 _1447_
*1612 _1448_
*1613 _1449_
*1614 _1450_
*1615 _1451_
*1616 _1452_
*1617 _1453_
*1618 _1454_
*1619 _1455_
*1620 _1456_
*1621 _1457_
*1622 _1458_
*1623 _1459_
*1624 _1460_
*1625 _1461_
*1626 _1462_
*1627 _1463_
*1628 _1464_
*1629 _1465_
*1630 _1466_
*1631 _1467_
*1632 _1468_
*1633 _1469_
*1634 _1470_
*1635 _1471_
*1636 _1472_
*1637 _1473_
*1638 _1474_
*1639 _1475_
*1640 _1476_
*1641 _1477_
*1642 _1478_
*1643 _1479_
*1644 _1480_
*1645 _1481_
*1646 _1482_
*1647 _1483_
*1648 _1484_
*1649 _1485_
*1650 _1486_
*1651 _1487_
*1652 _1488_
*1653 _1489_
*1654 _1490_
*1655 _1491_
*1656 _1492_
*1657 _1493_
*1658 _1494_
*1659 _1495_
*1660 _1496_
*1661 _1497_
*1662 _1498_
*1663 _1499_
*1664 _1500_
*1665 _1501_
*1666 _1502_
*1667 _1503_
*1668 _1504_
*1669 _1505_
*1670 _1506_
*1671 _1507_
*1672 _1508_
*1673 _1509_
*1674 _1510_
*1675 _1511_
*1676 _1512_
*1677 _1513_
*1678 _1514_
*1679 _1515_
*1680 _1516_
*1681 _1517_
*1682 _1518_
*1683 _1519_
*1684 _1520_
*1685 _1521_
*1686 _1522_
*1687 _1523_
*1688 _1524_
*1689 _1525_
*1690 _1526_
*1691 _1527_
*1692 _1528_
*1693 _1529_
*1694 _1530_
*1695 _1531_
*1696 _1532_
*1697 _1533_
*1698 _1534_
*1699 _1535_
*1700 _1536_
*1701 _1537_
*1702 _1538_
*1703 _1539_
*1704 _1540_
*1705 _1541_
*1706 _1542_
*1707 _1543_
*1708 _1544_
*1709 _1545_
*1710 _1546_
*1711 _1547_
*1712 _1548_
*1713 _1549_
*1714 _1550_
*1715 _1551_
*1716 _1552_
*1717 _1553_
*1718 _1554_
*1719 _1555_
*1720 _1556_
*1721 _1557_
*1722 _1558_
*1723 _1559_
*1724 _1560_
*1725 _1561_
*1726 _1562_
*1727 _1563_
*1728 _1564_
*1729 _1565_
*1730 _1566_
*1731 _1567_
*1732 _1568_
*1733 _1569_
*1734 _1570_
*1735 _1571_
*1736 _1572_
*1737 _1573_
*1738 _1574_
*1739 _1575_
*1740 _1576_
*1741 _1577_
*1742 _1578_
*1743 _1579_
*1744 _1580_
*1745 _1581_
*1746 _1582_
*1747 _1583_
*1748 _1584_
*1749 _1585_
*1750 _1586_
*1751 _1587_
*1752 _1588_
*1753 _1589_
*1754 _1590_
*1755 _1591_
*1756 _1592_
*1757 _1593_
*1758 _1594_
*1759 _1595_
*1760 _1596_
*1761 _1597_
*1762 _1598_
*1763 _1599_
*1764 _1600_
*1765 _1601_
*1766 _1602_
*1767 _1603_
*1768 _1604_
*1769 _1605_
*1770 _1606_
*1771 _1607_
*1772 _1608_
*1773 _1609_
*1774 _1610_
*1775 _1611_
*1776 _1612_
*1777 _1613_
*1778 _1614_
*1779 _1615_
*1780 _1616_
*1781 _1617_
*1782 _1618_
*1783 _1619_
*1784 _1620_
*1785 _1621_
*1786 _1622_
*1787 _1623_
*1788 _1624_
*1789 _1625_
*1790 _1626_
*1791 _1627_
*1792 _1628_
*1793 _1629_
*1794 _1630_
*1795 _1631_
*1796 _1632_
*1797 _1633_
*1798 _1634_
*1799 _1635_
*1800 _1636_
*1801 _1637_
*1802 _1638_
*1803 _1639_
*1804 _1640_
*1805 _1641_
*1806 _1642_
*1807 _1643_
*1808 _1644_
*1809 _1645_
*1810 _1646_
*1811 _1647_
*1812 _1648_
*1813 _1649_
*1814 _1650_
*1815 _1651_
*1816 _1652_
*1817 _1653_
*1818 _1654_
*1819 _1655_
*1820 _1656_
*1821 _1657_
*1822 _1658_
*1823 _1659_
*1824 _1660_
*1825 _1661_
*1826 _1662_
*1827 _1663_
*1828 _1664_
*1829 _1665_
*1830 _1666_
*1831 _1667_
*1832 _1668_
*1833 _1669_
*1834 _1670_
*1835 _1671_
*1836 _1672_
*1837 _1673_
*1838 _1674_
*1839 _1675_
*1840 _1676_
*1841 _1677_
*1842 _1678_
*1843 _1679_
*1844 _1680_
*1845 _1681_
*1846 _1682_
*1847 _1683_
*1848 _1684_
*1849 _1685_
*1850 _1686_
*1851 _1687_
*1852 _1688_
*1853 _1689_
*1854 _1690_
*1855 _1691_
*1856 _1692_
*1857 _1693_
*1858 _1694_
*1859 _1695_
*1860 _1696_
*1861 _1697_
*1862 _1698_
*1863 _1699_
*1864 _1700_
*1865 _1701_
*1866 _1702_
*1867 _1703_
*1868 _1704_
*1869 _1705_
*1870 _1706_
*1871 _1707_
*1872 _1708_
*1873 _1709_
*1874 _1710_
*1875 _1711_
*1876 _1712_
*1877 _1713_
*1878 _1714_
*1879 _1715_
*1880 _1716_
*1881 _1717_
*1882 _1718_
*1883 _1719_
*1884 _1720_
*1885 _1721_
*1886 _1722_
*1887 _1723_
*1888 _1724_
*1889 _1725_
*1890 _1726_
*1891 _1727_
*1892 _1728_
*1893 _1729_
*1894 _1730_
*1895 _1731_
*1896 _1732_
*1897 _1733_
*1898 _1734_
*1899 _1735_
*1900 _1736_
*1901 _1737_
*1902 _1738_
*1903 _1739_
*1904 _1740_
*1905 _1741_
*1906 _1742_
*1907 _1743_
*1908 _1744_
*1909 _1745_
*1910 _1746_
*1911 _1747_
*1912 _1748_
*1913 _1749_
*1914 _1750_
*1915 _1751_
*1916 _1752_
*1917 _1753_
*1918 _1754_
*1919 _1755_
*1920 _1756_
*1921 _1757_
*1922 _1758_
*1923 _1759_
*1924 _1760_
*1925 _1761_
*1926 _1762_
*1927 _1763_
*1928 _1764_
*1929 _1765_
*1930 _1766_
*1931 _1767_
*1932 _1768_
*1933 _1769_
*1934 _1770_
*1935 _1771_
*1936 _1772_
*1937 _1773_
*1938 _1774_
*1939 _1775_
*1940 _1776_
*1941 _1777_
*1942 _1778_
*1943 _1779_
*1944 _1780_
*1945 _1781_
*1946 _1782_
*1947 _1783_
*1948 _1784_
*1949 _1785_
*1950 _1786_
*1951 _1787_
*1952 _1788_
*1953 _1789_
*1954 _1790_
*1955 _1791_
*1956 _1792_
*1957 _1793_
*1958 _1794_
*1959 _1795_
*1960 _1796_
*1961 _1797_
*1962 _1798_
*1963 _1799_
*1964 _1800_
*1965 _1801_
*1966 _1802_
*1967 _1803_
*1968 _1804_
*1969 _1805_
*1970 _1806_
*1971 _1807_
*1972 _1808_
*1973 _1809_
*1974 _1810_
*1975 _1811_
*1976 _1812_
*1977 _1813_
*1978 _1814_
*1979 _1815_
*1980 _1816_
*1981 _1817_
*1982 _1818_
*1983 _1819_
*1984 _1820_
*1985 _1821_
*1986 _1822_
*1987 _1823_
*1988 _1824_
*1989 _1825_
*1990 _1826_
*1991 _1827_
*1992 _1828_
*1993 _1829_
*1994 _1830_
*1995 _1831_
*1996 _1832_
*1997 _1833_
*1998 _1834_
*1999 _1835_
*2000 _1836_
*2001 _1837_
*2002 _1838_
*2003 _1839_
*2004 _1840_
*2005 _1841_
*2006 _1842_
*2007 _1843_
*2008 _1844_
*2009 _1845_
*2010 _1846_
*2011 _1847_
*2012 _1848_
*2013 _1849_
*2014 _1850_
*2015 _1851_
*2016 _1852_
*2017 _1853_
*2018 _1854_
*2019 _1855_
*2020 _1856_
*2021 _1857_
*2022 _1858_
*2023 _1859_
*2024 _1860_
*2025 _1861_
*2026 _1862_
*2027 _1863_
*2028 _1864_
*2029 _1865_
*2030 _1866_
*2031 _1867_
*2032 _1868_
*2033 _1869_
*2034 _1870_
*2035 _1871_
*2036 _1872_
*2037 _1873_
*2038 _1874_
*2039 _1875_
*2040 _1876_
*2041 _1877_
*2042 _1878_
*2043 _1879_
*2044 _1880_
*2045 _1881_
*2046 _1882_
*2047 _1883_
*2048 _1884_
*2049 _1885_
*2050 _1886_
*2051 _1887_
*2052 _1888_
*2053 _1889_
*2054 _1890_
*2055 _1891_
*2056 _1892_
*2057 _1893_
*2058 _1894_
*2059 _1895_
*2060 _1896_
*2061 _1897_
*2062 _1898_
*2063 _1899_
*2064 _1900_
*2065 _1901_
*2066 _1902_
*2067 _1903_
*2068 _1904_
*2069 _1905_
*2070 _1906_
*2071 _1907_
*2072 _1908_
*2073 _1909_
*2074 _1910_
*2075 _1911_
*2076 _1912_
*2077 _1913_
*2078 _1914_
*2079 _1915_
*2080 _1916_
*2081 _1917_
*2082 _1918_
*2083 _1919_
*2084 _1920_
*2085 _1921_
*2086 _1922_
*2087 _1923_
*2088 _1924_
*2089 _1925_
*2090 _1926_
*2091 _1927_
*2092 _1928_
*2093 _1929_
*2094 _1930_
*2095 _1931_
*2096 _1932_
*2097 _1933_
*2098 _1934_
*2099 _1935_
*2100 _1936_
*2101 _1937_
*2102 _1938_
*2103 _1939_
*2104 _1940_
*2105 _1941_
*2106 _1942_
*2107 _1943_
*2108 _1944_
*2109 _1945_
*2110 _1946_
*2111 _1947_
*2112 _1948_
*2113 _1949_
*2114 _1950_
*2115 _1951_
*2116 _1952_
*2117 _1953_
*2118 _1954_
*2119 _1955_
*2120 _1956_
*2121 _1957_
*2122 _1958_
*2123 _1959_
*2124 _1960_
*2125 _1961_
*2126 _1962_
*2127 _1963_
*2128 _1964_
*2129 _1965_
*2130 _1966_
*2131 _1967_
*2132 _1968_
*2133 _1969_
*2134 _1970_
*2135 _1971_
*2136 _1972_
*2137 _1973_
*2138 _1974_
*2139 _1975_
*2140 _1976_
*2141 _1977_
*2142 _1978_
*2143 _1979_
*2144 _1980_
*2145 _1981_
*2146 _1982_
*2147 _1983_
*2148 _1984_
*2149 _1985_
*2150 _1986_
*2151 _1987_
*2152 _1988_
*2153 _1989_
*2154 _1990_
*2155 _1991_
*2156 _1992_
*2157 _1993_
*2158 _1994_
*2159 _1995_
*2160 _1996_
*2161 _1997_
*2162 _1998_
*2163 _1999_
*2164 _2000_
*2165 _2001_
*2166 _2002_
*2167 _2003_
*2168 _2004_
*2169 _2005_
*2170 _2006_
*2171 _2007_
*2172 _2008_
*2173 _2009_
*2174 _2010_
*2175 _2011_
*2176 _2012_
*2177 _2013_
*2178 _2014_
*2179 _2015_
*2180 _2016_
*2181 _2017_
*2182 _2018_
*2183 _2019_
*2184 _2020_
*2185 _2021_
*2186 _2022_
*2187 _2023_
*2188 _2024_
*2189 _2025_
*2190 _2026_
*2191 _2027_
*2192 _2028_
*2193 _2029_
*2194 _2030_
*2195 _2031_
*2196 _2032_
*2197 _2033_
*2198 _2034_
*2199 _2035_
*2200 _2036_
*2201 _2037_
*2202 _2038_
*2203 _2039_
*2204 _2040_
*2205 _2041_
*2206 _2042_
*2207 _2043_
*2208 _2044_
*2209 _2045_
*2210 _2046_
*2211 _2047_
*2212 _2048_
*2213 _2049_
*2214 _2050_
*2215 _2051_
*2216 _2052_
*2217 _2053_
*2218 _2054_
*2219 _2055_
*2220 _2056_
*2221 _2057_
*2222 _2058_
*2223 _2059_
*2224 _2060_
*2225 _2061_
*2226 _2062_
*2227 _2063_
*2228 _2064_
*2229 _2065_
*2230 _2066_
*2231 _2067_
*2232 _2068_
*2233 _2069_
*2234 _2070_
*2235 _2071_
*2236 _2072_
*2237 _2073_
*2238 _2074_
*2239 _2075_
*2240 _2076_
*2241 _2077_
*2242 _2078_
*2243 _2079_
*2244 _2080_
*2245 _2081_
*2246 _2082_
*2247 _2083_
*2248 _2084_
*2249 _2085_
*2250 _2086_
*2251 _2087_
*2252 _2088_
*2253 _2089_
*2254 _2090_
*2255 _2091_
*2256 _2092_
*2257 _2093_
*2258 _2094_
*2259 _2095_
*2260 _2096_
*2261 _2097_
*2262 _2098_
*2263 _2099_
*2264 _2100_
*2265 _2101_
*2266 _2102_
*2267 _2103_
*2268 _2104_
*2269 _2105_
*2270 _2106_
*2271 _2107_
*2272 _2108_
*2273 _2109_
*2274 _2110_
*2275 _2111_
*2276 _2112_
*2277 _2113_
*2278 _2114_
*2279 _2115_
*2280 _2116_
*2281 _2117_
*2282 _2118_
*2283 _2119_
*2284 _2120_
*2285 _2121_
*2286 _2122_
*2287 _2123_
*2288 _2124_
*2289 _2125_
*2290 _2126_
*2291 _2127_
*2292 _2128_
*2293 _2129_
*2294 _2130_
*2295 _2131_
*2296 _2132_
*2297 _2133_
*2298 _2134_
*2299 _2135_
*2300 _2136_
*2301 _2137_
*2302 _2138_
*2303 _2139_